gem5 Simulator System.  http://gem5.org
gem5 is copyrighted software; use the --copyright option for details.

gem5 compiled Aug 17 2020 17:11:46
gem5 started Aug 27 2020 12:11:30
gem5 executing on atlas.engr.tamu.edu, pid 5727
command line: ./build/NULL/gem5.debug --debug-flags=FlitOrder configs/example/garnet_synth_traffic.py --num-cpus=16 --num-dirs=16 --network=garnet2.0 --topology=Mesh_XY --mesh-rows=4 --synthetic=uniform_random --injectionrate=0.02 --num-packets-max=10 --single-sender-id=1 --single-dest-id=11

Global frequency set at 1000000000 ticks per second
     36: global: [IU] flit 0-0 entering port 0 at router 1
     36: global: [IU] flit 0-0 leaving port 0 at router 1
     36: global: SA flit 0-0 send_allowed at Router 1
     36: global: SA outport set to 3 for flit 0-0 at Router 1
     36: global: [CB] flit 0-0 entered at Router 1
     37: global: [IU] flit 1-0 entering port 0 at router 1
     37: global: [IU] flit 1-0 leaving port 0 at router 1
     37: global: SA flit 1-0 send_allowed at Router 1
     37: global: SA outport set to 3 for flit 1-0 at Router 1
     37: global: [CB] flit 1-0 entered at Router 1
     38: global: [IU] flit 0-0 entering port 2 at router 2
     38: global: [IU] flit 0-0 leaving port 2 at router 2
     38: global: SA flit 0-0 send_allowed at Router 2
     38: global: SA outport set to 3 for flit 0-0 at Router 2
     38: global: [CB] flit 0-0 entered at Router 2
     39: global: [IU] flit 1-0 entering port 2 at router 2
     39: global: [IU] flit 1-0 leaving port 2 at router 2
     39: global: SA flit 1-0 send_allowed at Router 2
     39: global: SA outport set to 3 for flit 1-0 at Router 2
     39: global: [CB] flit 1-0 entered at Router 2
     40: global: [IU] flit 0-0 entering port 2 at router 3
     40: global: [IU] flit 0-0 leaving port 2 at router 3
     40: global: SA flit 0-0 send_allowed at Router 3
     40: global: SA outport set to 3 for flit 0-0 at Router 3
     40: global: [CB] flit 0-0 entered at Router 3
     41: global: [IU] flit 1-0 entering port 2 at router 3
     41: global: [IU] flit 1-0 leaving port 2 at router 3
     41: global: SA flit 1-0 send_allowed at Router 3
     41: global: SA outport set to 3 for flit 1-0 at Router 3
     41: global: [CB] flit 1-0 entered at Router 3
     42: global: [IU] flit 0-0 entering port 2 at router 7
     42: global: [IU] flit 0-0 leaving port 2 at router 7
     42: global: SA flit 0-0 send_allowed at Router 7
     42: global: SA outport set to 4 for flit 0-0 at Router 7
     42: global: [CB] flit 0-0 entered at Router 7
     43: global: [IU] flit 1-0 entering port 2 at router 7
     43: global: [IU] flit 1-0 leaving port 2 at router 7
     43: global: SA flit 1-0 send_allowed at Router 7
     43: global: SA outport set to 4 for flit 1-0 at Router 7
     43: global: [CB] flit 1-0 entered at Router 7
     44: global: [IU] flit 0-0 entering port 2 at router 11
     44: global: [IU] flit 0-0 leaving port 2 at router 11
     44: global: SA flit 0-0 send_allowed at Router 11
     44: global: SA outport set to 1 for flit 0-0 at Router 11
     44: global: [CB] flit 0-0 entered at Router 11
     45: global: [IU] flit 1-0 entering port 2 at router 11
     45: global: [IU] flit 1-0 leaving port 2 at router 11
     45: global: SA flit 1-0 send_allowed at Router 11
     45: global: SA outport set to 1 for flit 1-0 at Router 11
     45: global: [CB] flit 1-0 entered at Router 11
     50: global: [IU] flit 2-0 entering port 0 at router 1
     50: global: [IU] flit 2-0
     50: global: [IU] flit 2-0 leaving port 0 at router 1
     50: global: SA flit 2-0 send_allowed at Router 1
     50: global: SA outport set to 3 for flit 2-0 at Router 1
     50: global: [CB] flit 2-0 entered at Router 1
     51: global: [IU] flit 2-1 entering port 0 at router 1
     51: global: [IU] flit 2-1 leaving port 0 at router 1
     51: global: SA flit 2-1 send_allowed at Router 1
     51: global: SA outport set to 3 for flit 2-1 at Router 1
     51: global: [CB] flit 2-1 entered at Router 1
     52: global: [IU] flit 2-0 entering port 2 at router 2
     52: global: [IU] flit 2-0
     52: global: [IU] flit 2-0 leaving port 2 at router 2
     52: global: SA flit 2-0 send_allowed at Router 2
     52: global: SA outport set to 3 for flit 2-0 at Router 2
     52: global: [CB] flit 2-0 entered at Router 2
     52: global: [IU] flit 2-2 entering port 0 at router 1
     52: global: [IU] flit 2-2 leaving port 0 at router 1
     52: global: SA flit 2-2 send_allowed at Router 1
     52: global: SA outport set to 3 for flit 2-2 at Router 1
     52: global: [CB] flit 2-2 entered at Router 1
     53: global: [IU] flit 2-1 entering port 2 at router 2
     53: global: [IU] flit 2-1 leaving port 2 at router 2
     53: global: SA flit 2-1 send_allowed at Router 2
     53: global: SA outport set to 3 for flit 2-1 at Router 2
     53: global: [CB] flit 2-1 entered at Router 2
     53: global: [IU] flit 2-3 entering port 0 at router 1
     53: global: [IU] flit 2-3 leaving port 0 at router 1
     53: global: SA flit 2-3 send_allowed at Router 1
     53: global: SA outport set to 3 for flit 2-3 at Router 1
     53: global: [CB] flit 2-3 entered at Router 1
     54: global: [IU] flit 2-0 entering port 2 at router 3
     54: global: [IU] flit 2-0
     54: global: [IU] flit 2-0 leaving port 2 at router 3
     54: global: SA flit 2-0 send_allowed at Router 3
     54: global: SA outport set to 3 for flit 2-0 at Router 3
     54: global: [CB] flit 2-0 entered at Router 3
     54: global: [IU] flit 2-2 entering port 2 at router 2
     54: global: [IU] flit 2-2 leaving port 2 at router 2
     54: global: SA flit 2-2 send_allowed at Router 2
     54: global: SA outport set to 3 for flit 2-2 at Router 2
     54: global: [CB] flit 2-2 entered at Router 2
     55: global: [IU] flit 2-1 entering port 2 at router 3
     55: global: [IU] flit 2-1 leaving port 2 at router 3
     55: global: SA flit 2-1 send_allowed at Router 3
     55: global: SA outport set to 3 for flit 2-1 at Router 3
     55: global: [CB] flit 2-1 entered at Router 3
     55: global: [IU] flit 2-3 entering port 2 at router 2
     55: global: [IU] flit 2-3 leaving port 2 at router 2
     55: global: SA flit 2-3 send_allowed at Router 2
     55: global: SA outport set to 3 for flit 2-3 at Router 2
     55: global: [CB] flit 2-3 entered at Router 2
     55: global: [IU] flit 2-4 entering port 0 at router 1
     55: global: [IU] flit 2-4 leaving port 0 at router 1
     55: global: SA flit 2-4 send_allowed at Router 1
     55: global: SA outport set to 3 for flit 2-4 at Router 1
     55: global: [CB] flit 2-4 entered at Router 1
     56: global: [IU] flit 2-0 entering port 2 at router 7
     56: global: [IU] flit 2-0
     56: global: [IU] flit 2-0 leaving port 2 at router 7
     56: global: SA flit 2-0 send_allowed at Router 7
     56: global: SA outport set to 4 for flit 2-0 at Router 7
     56: global: [CB] flit 2-0 entered at Router 7
     56: global: [IU] flit 2-2 entering port 2 at router 3
     56: global: [IU] flit 2-2 leaving port 2 at router 3
     56: global: SA flit 2-2 send_allowed at Router 3
     56: global: SA outport set to 3 for flit 2-2 at Router 3
     56: global: [CB] flit 2-2 entered at Router 3
     57: global: [IU] flit 2-1 entering port 2 at router 7
     57: global: [IU] flit 2-1 leaving port 2 at router 7
     57: global: SA flit 2-1 send_allowed at Router 7
     57: global: SA outport set to 4 for flit 2-1 at Router 7
     57: global: [CB] flit 2-1 entered at Router 7
     57: global: [IU] flit 2-3 entering port 2 at router 3
     57: global: [IU] flit 2-3 leaving port 2 at router 3
     57: global: SA flit 2-3 send_allowed at Router 3
     57: global: SA outport set to 3 for flit 2-3 at Router 3
     57: global: [CB] flit 2-3 entered at Router 3
     57: global: [IU] flit 2-4 entering port 2 at router 2
     57: global: [IU] flit 2-4 leaving port 2 at router 2
     57: global: SA flit 2-4 send_allowed at Router 2
     57: global: SA outport set to 3 for flit 2-4 at Router 2
     57: global: [CB] flit 2-4 entered at Router 2
     57: global: [IU] flit 3-0 entering port 0 at router 1
     57: global: [IU] flit 3-0
     57: global: [IU] flit 3-0 leaving port 0 at router 1
     57: global: SA flit 3-0 send_allowed at Router 1
     57: global: SA outport set to 3 for flit 3-0 at Router 1
     57: global: [CB] flit 3-0 entered at Router 1
     58: global: [IU] flit 3-1 entering port 0 at router 1
     58: global: [IU] flit 3-1 leaving port 0 at router 1
     58: global: SA flit 3-1 send_allowed at Router 1
     58: global: SA outport set to 3 for flit 3-1 at Router 1
     58: global: [CB] flit 3-1 entered at Router 1
     58: global: [IU] flit 2-0 entering port 2 at router 11
     58: global: [IU] flit 2-0
     58: global: [IU] flit 2-0 leaving port 2 at router 11
     58: global: SA flit 2-0 send_allowed at Router 11
     58: global: SA outport set to 1 for flit 2-0 at Router 11
     58: global: [CB] flit 2-0 entered at Router 11
     58: global: [IU] flit 2-2 entering port 2 at router 7
     58: global: [IU] flit 2-2 leaving port 2 at router 7
     58: global: SA flit 2-2 send_allowed at Router 7
     58: global: SA outport set to 4 for flit 2-2 at Router 7
     58: global: [CB] flit 2-2 entered at Router 7
     59: global: [IU] flit 2-1 entering port 2 at router 11
     59: global: [IU] flit 2-1 leaving port 2 at router 11
     59: global: SA flit 2-1 send_allowed at Router 11
     59: global: SA outport set to 1 for flit 2-1 at Router 11
     59: global: [CB] flit 2-1 entered at Router 11
     59: global: [IU] flit 2-3 entering port 2 at router 7
     59: global: [IU] flit 2-3 leaving port 2 at router 7
     59: global: SA flit 2-3 send_allowed at Router 7
     59: global: SA outport set to 4 for flit 2-3 at Router 7
     59: global: [CB] flit 2-3 entered at Router 7
     59: global: [IU] flit 2-4 entering port 2 at router 3
     59: global: [IU] flit 2-4 leaving port 2 at router 3
     59: global: SA flit 2-4 send_allowed at Router 3
     59: global: SA outport set to 3 for flit 2-4 at Router 3
     59: global: [CB] flit 2-4 entered at Router 3
     59: global: [IU] flit 3-0 entering port 2 at router 2
     59: global: [IU] flit 3-0
     59: global: [IU] flit 3-0 leaving port 2 at router 2
     59: global: SA flit 3-0 send_allowed at Router 2
     59: global: SA outport set to 3 for flit 3-0 at Router 2
     59: global: [CB] flit 3-0 entered at Router 2
     59: global: [IU] flit 3-2 entering port 0 at router 1
     59: global: [IU] flit 3-2 leaving port 0 at router 1
     59: global: SA flit 3-2 send_allowed at Router 1
     59: global: SA outport set to 3 for flit 3-2 at Router 1
     59: global: [CB] flit 3-2 entered at Router 1
     60: global: [IU] flit 3-1 entering port 2 at router 2
     60: global: [IU] flit 3-1 leaving port 2 at router 2
     60: global: SA flit 3-1 send_allowed at Router 2
     60: global: SA outport set to 3 for flit 3-1 at Router 2
     60: global: [CB] flit 3-1 entered at Router 2
     60: global: [IU] flit 3-3 entering port 0 at router 1
     60: global: [IU] flit 3-3 leaving port 0 at router 1
     60: global: SA flit 3-3 send_allowed at Router 1
     60: global: SA outport set to 3 for flit 3-3 at Router 1
     60: global: [CB] flit 3-3 entered at Router 1
     60: global: [IU] flit 2-2 entering port 2 at router 11
     60: global: [IU] flit 2-2 leaving port 2 at router 11
     60: global: SA flit 2-2 send_allowed at Router 11
     60: global: SA outport set to 1 for flit 2-2 at Router 11
     60: global: [CB] flit 2-2 entered at Router 11
     61: global: [IU] flit 2-3 entering port 2 at router 11
     61: global: [IU] flit 2-3 leaving port 2 at router 11
     61: global: SA flit 2-3 send_allowed at Router 11
     61: global: SA outport set to 1 for flit 2-3 at Router 11
     61: global: [CB] flit 2-3 entered at Router 11
     61: global: [IU] flit 2-4 entering port 2 at router 7
     61: global: [IU] flit 2-4 leaving port 2 at router 7
     61: global: SA flit 2-4 send_allowed at Router 7
     61: global: SA outport set to 4 for flit 2-4 at Router 7
     61: global: [CB] flit 2-4 entered at Router 7
     61: global: [IU] flit 3-0 entering port 2 at router 3
     61: global: [IU] flit 3-0
     61: global: [IU] flit 3-0 leaving port 2 at router 3
     61: global: SA flit 3-0 send_allowed at Router 3
     61: global: SA outport set to 3 for flit 3-0 at Router 3
     61: global: [CB] flit 3-0 entered at Router 3
     61: global: [IU] flit 3-2 entering port 2 at router 2
     61: global: [IU] flit 3-2 leaving port 2 at router 2
     61: global: SA flit 3-2 send_allowed at Router 2
     61: global: SA outport set to 3 for flit 3-2 at Router 2
     61: global: [CB] flit 3-2 entered at Router 2
     62: global: [IU] flit 3-1 entering port 2 at router 3
     62: global: [IU] flit 3-1 leaving port 2 at router 3
     62: global: SA flit 3-1 send_allowed at Router 3
     62: global: SA outport set to 3 for flit 3-1 at Router 3
     62: global: [CB] flit 3-1 entered at Router 3
     62: global: [IU] flit 3-3 entering port 2 at router 2
     62: global: [IU] flit 3-3 leaving port 2 at router 2
     62: global: SA flit 3-3 send_allowed at Router 2
     62: global: SA outport set to 3 for flit 3-3 at Router 2
     62: global: [CB] flit 3-3 entered at Router 2
     62: global: [IU] flit 3-4 entering port 0 at router 1
     62: global: [IU] flit 3-4 leaving port 0 at router 1
     62: global: SA flit 3-4 send_allowed at Router 1
     62: global: SA outport set to 3 for flit 3-4 at Router 1
     62: global: [CB] flit 3-4 entered at Router 1
     63: global: [IU] flit 2-4 entering port 2 at router 11
     63: global: flit 2-4 lastflit 369016528-21916 stalled
     63: global: [IU] flit 3-0 entering port 2 at router 7
     63: global: [IU] flit 3-0
     63: global: [IU] flit 3-0 leaving port 2 at router 7
     63: global: SA flit 3-0 send_allowed at Router 7
     63: global: SA outport set to 4 for flit 3-0 at Router 7
     63: global: [CB] flit 3-0 entered at Router 7
     63: global: [IU] flit 3-2 entering port 2 at router 3
     63: global: [IU] flit 3-2 leaving port 2 at router 3
     63: global: SA flit 3-2 send_allowed at Router 3
     63: global: SA outport set to 3 for flit 3-2 at Router 3
     63: global: [CB] flit 3-2 entered at Router 3
     64: global: [IU] flit 3-1 entering port 2 at router 7
     64: global: [IU] flit 3-1 leaving port 2 at router 7
     64: global: SA flit 3-1 send_allowed at Router 7
     64: global: SA outport set to 4 for flit 3-1 at Router 7
     64: global: [CB] flit 3-1 entered at Router 7
     64: global: [IU] flit 3-3 entering port 2 at router 3
     64: global: [IU] flit 3-3 leaving port 2 at router 3
     64: global: SA flit 3-3 send_allowed at Router 3
     64: global: SA outport set to 3 for flit 3-3 at Router 3
     64: global: [CB] flit 3-3 entered at Router 3
     64: global: [IU] flit 3-4 entering port 2 at router 2
     64: global: [IU] flit 3-4 leaving port 2 at router 2
     64: global: SA flit 3-4 send_allowed at Router 2
     64: global: SA outport set to 3 for flit 3-4 at Router 2
     64: global: [CB] flit 3-4 entered at Router 2
     64: global: [IU] flit 2-4 entering port 2 at router 11
     64: global: flit 2-4 lastflit 369016528-21916 stalled
     65: global: [IU] flit 2-4 entering port 2 at router 11
     65: global: flit 2-4 lastflit 392849568-21916 stalled
     65: global: [IU] flit 3-2 entering port 2 at router 7
     65: global: [IU] flit 3-2 leaving port 2 at router 7
     65: global: SA flit 3-2 send_allowed at Router 7
     65: global: SA outport set to 4 for flit 3-2 at Router 7
     65: global: [CB] flit 3-2 entered at Router 7
     66: global: [IU] flit 2-4 entering port 2 at router 11
     66: global: flit 2-4 lastflit 392849568-21916 stalled
     66: global: [IU] flit 3-3 entering port 2 at router 7
     66: global: [IU] flit 3-3 leaving port 2 at router 7
     66: global: SA flit 3-3 send_allowed at Router 7
     66: global: SA outport set to 4 for flit 3-3 at Router 7
     66: global: [CB] flit 3-3 entered at Router 7
     66: global: [IU] flit 3-4 entering port 2 at router 3
     66: global: [IU] flit 3-4 leaving port 2 at router 3
     66: global: SA flit 3-4 send_allowed at Router 3
     66: global: SA outport set to 3 for flit 3-4 at Router 3
     66: global: [CB] flit 3-4 entered at Router 3
     67: global: [IU] flit 2-4 entering port 2 at router 11
     67: global: flit 2-4 lastflit 392849568-21916 stalled
     68: global: [IU] flit 2-4 entering port 2 at router 11
     68: global: flit 2-4 lastflit 392849568-21916 stalled
     68: global: [IU] flit 3-4 entering port 2 at router 7
     68: global: [IU] flit 3-4 leaving port 2 at router 7
     68: global: SA flit 3-4 send not allowed at Router 7
     69: global: SA flit 3-4 send not allowed at Router 7
     70: global: SA flit 3-4 send not allowed at Router 7
     71: global: SA flit 3-4 send not allowed at Router 7
     72: global: SA flit 3-4 send not allowed at Router 7
     73: global: SA flit 3-4 send not allowed at Router 7
     74: global: SA flit 3-4 send not allowed at Router 7
     74: global: [IU] flit 4-0 entering port 0 at router 1
     74: global: [IU] flit 4-0
     74: global: [IU] flit 4-0 leaving port 0 at router 1
     74: global: SA flit 4-0 send_allowed at Router 1
     74: global: SA outport set to 3 for flit 4-0 at Router 1
     74: global: [CB] flit 4-0 entered at Router 1
     75: global: [IU] flit 4-1 entering port 0 at router 1
     75: global: [IU] flit 4-1 leaving port 0 at router 1
     75: global: SA flit 4-1 send_allowed at Router 1
     75: global: SA outport set to 3 for flit 4-1 at Router 1
     75: global: [CB] flit 4-1 entered at Router 1
     75: global: SA flit 3-4 send not allowed at Router 7
     76: global: SA flit 3-4 send not allowed at Router 7
     76: global: [IU] flit 4-0 entering port 2 at router 2
     76: global: [IU] flit 4-0
     76: global: [IU] flit 4-0 leaving port 2 at router 2
     76: global: SA flit 4-0 send_allowed at Router 2
     76: global: SA outport set to 3 for flit 4-0 at Router 2
     76: global: [CB] flit 4-0 entered at Router 2
     76: global: [IU] flit 4-2 entering port 0 at router 1
     76: global: [IU] flit 4-2 leaving port 0 at router 1
     76: global: SA flit 4-2 send_allowed at Router 1
     76: global: SA outport set to 3 for flit 4-2 at Router 1
     76: global: [CB] flit 4-2 entered at Router 1
     77: global: [IU] flit 4-1 entering port 2 at router 2
     77: global: [IU] flit 4-1 leaving port 2 at router 2
     77: global: SA flit 4-1 send_allowed at Router 2
     77: global: SA outport set to 3 for flit 4-1 at Router 2
     77: global: [CB] flit 4-1 entered at Router 2
     77: global: [IU] flit 4-3 entering port 0 at router 1
     77: global: [IU] flit 4-3 leaving port 0 at router 1
     77: global: SA flit 4-3 send_allowed at Router 1
     77: global: SA outport set to 3 for flit 4-3 at Router 1
     77: global: [CB] flit 4-3 entered at Router 1
     77: global: SA flit 3-4 send not allowed at Router 7
     78: global: SA flit 3-4 send not allowed at Router 7
     78: global: [IU] flit 4-0 entering port 2 at router 3
     78: global: [IU] flit 4-0
     78: global: [IU] flit 4-0 leaving port 2 at router 3
     78: global: SA flit 4-0 send_allowed at Router 3
     78: global: SA outport set to 3 for flit 4-0 at Router 3
     78: global: [CB] flit 4-0 entered at Router 3
     78: global: [IU] flit 4-2 entering port 2 at router 2
     78: global: [IU] flit 4-2 leaving port 2 at router 2
     78: global: SA flit 4-2 send_allowed at Router 2
     78: global: SA outport set to 3 for flit 4-2 at Router 2
     78: global: [CB] flit 4-2 entered at Router 2
     79: global: [IU] flit 4-1 entering port 2 at router 3
     79: global: [IU] flit 4-1 leaving port 2 at router 3
     79: global: SA flit 4-1 send_allowed at Router 3
     79: global: SA outport set to 3 for flit 4-1 at Router 3
     79: global: [CB] flit 4-1 entered at Router 3
     79: global: [IU] flit 4-3 entering port 2 at router 2
     79: global: [IU] flit 4-3 leaving port 2 at router 2
     79: global: SA flit 4-3 send_allowed at Router 2
     79: global: SA outport set to 3 for flit 4-3 at Router 2
     79: global: [CB] flit 4-3 entered at Router 2
     79: global: [IU] flit 4-4 entering port 0 at router 1
     79: global: [IU] flit 4-4 leaving port 0 at router 1
     79: global: SA flit 4-4 send_allowed at Router 1
     79: global: SA outport set to 3 for flit 4-4 at Router 1
     79: global: [CB] flit 4-4 entered at Router 1
     79: global: SA flit 3-4 send not allowed at Router 7
     80: global: [IU] flit 4-0 entering port 2 at router 7
     80: global: [IU] flit 4-0
     80: global: [IU] flit 4-0 leaving port 2 at router 7
     80: global: SA flit 4-0 send_allowed at Router 7
     80: global: SA outport set to 4 for flit 4-0 at Router 7
     80: global: [CB] flit 4-0 entered at Router 7
     80: global: [IU] flit 4-2 entering port 2 at router 3
     80: global: [IU] flit 4-2 leaving port 2 at router 3
     80: global: SA flit 4-2 send_allowed at Router 3
     80: global: SA outport set to 3 for flit 4-2 at Router 3
     80: global: [CB] flit 4-2 entered at Router 3
     81: global: [IU] flit 4-3 entering port 2 at router 3
     81: global: [IU] flit 4-3 leaving port 2 at router 3
     81: global: SA flit 4-3 send_allowed at Router 3
     81: global: SA outport set to 3 for flit 4-3 at Router 3
     81: global: [CB] flit 4-3 entered at Router 3
     81: global: [IU] flit 4-4 entering port 2 at router 2
     81: global: [IU] flit 4-4 leaving port 2 at router 2
     81: global: SA flit 4-4 send_allowed at Router 2
     81: global: SA outport set to 3 for flit 4-4 at Router 2
     81: global: [CB] flit 4-4 entered at Router 2
     81: global: [IU] flit 4-1 entering port 2 at router 7
     81: global: [IU] flit 4-1 leaving port 2 at router 7
     81: global: SA flit 3-4 send not allowed at Router 7
     81: global: SA flit 4-1 send_allowed at Router 7
     81: global: SA outport set to 4 for flit 4-1 at Router 7
     81: global: [CB] flit 4-1 entered at Router 7
     82: global: [IU] flit 2-4 entering port 2 at router 11
     82: global: flit 2-4 lastflit 392849568-21916 stalled
     82: global: [IU] flit 4-2 entering port 2 at router 7
     82: global: [IU] flit 4-2 leaving port 2 at router 7
     82: global: SA flit 3-4 send not allowed at Router 7
     82: global: SA flit 4-2 send_allowed at Router 7
     82: global: SA outport set to 4 for flit 4-2 at Router 7
     82: global: [CB] flit 4-2 entered at Router 7
     83: global: [IU] flit 4-3 entering port 2 at router 7
     83: global: [IU] flit 4-3 leaving port 2 at router 7
     83: global: SA flit 3-4 send not allowed at Router 7
     83: global: SA flit 4-3 send_allowed at Router 7
     83: global: SA outport set to 4 for flit 4-3 at Router 7
     83: global: [CB] flit 4-3 entered at Router 7
     83: global: [IU] flit 4-4 entering port 2 at router 3
     83: global: [IU] flit 4-4 leaving port 2 at router 3
     83: global: SA flit 4-4 send_allowed at Router 3
     83: global: SA outport set to 3 for flit 4-4 at Router 3
     83: global: [CB] flit 4-4 entered at Router 3
     83: global: [IU] flit 2-4 entering port 2 at router 11
     83: global: flit 2-4 lastflit 392849568-21916 stalled
     84: global: SA flit 3-4 send not allowed at Router 7
     84: global: [IU] flit 2-4 entering port 2 at router 11
     84: global: flit 2-4 lastflit 392849568-21916 stalled
     85: global: [IU] flit 2-4 entering port 2 at router 11
     85: global: flit 2-4 lastflit 392849568-21916 stalled
     85: global: [IU] flit 4-4 entering port 2 at router 7
     85: global: [IU] flit 4-4 leaving port 2 at router 7
     85: global: SA flit 3-4 send not allowed at Router 7
     85: global: SA flit 4-4 send not allowed at Router 7
     86: global: SA flit 3-4 send not allowed at Router 7
     86: global: SA flit 4-4 send not allowed at Router 7
     87: global: SA flit 3-4 send not allowed at Router 7
     87: global: SA flit 4-4 send not allowed at Router 7
     88: global: SA flit 3-4 send not allowed at Router 7
     88: global: SA flit 4-4 send not allowed at Router 7
     89: global: SA flit 3-4 send not allowed at Router 7
     89: global: SA flit 4-4 send not allowed at Router 7
     90: global: SA flit 3-4 send not allowed at Router 7
     90: global: SA flit 4-4 send not allowed at Router 7
     91: global: SA flit 3-4 send not allowed at Router 7
     91: global: SA flit 4-4 send not allowed at Router 7
     91: global: [IU] flit 5-0 entering port 0 at router 1
     91: global: [IU] flit 5-0 leaving port 0 at router 1
     91: global: SA flit 5-0 send_allowed at Router 1
     91: global: SA outport set to 3 for flit 5-0 at Router 1
     91: global: [CB] flit 5-0 entered at Router 1
     92: global: SA flit 3-4 send not allowed at Router 7
     92: global: SA flit 4-4 send not allowed at Router 7
     93: global: SA flit 3-4 send not allowed at Router 7
     93: global: SA flit 4-4 send not allowed at Router 7
     93: global: [IU] flit 5-0 entering port 2 at router 2
     93: global: [IU] flit 5-0 leaving port 2 at router 2
     93: global: SA flit 5-0 send_allowed at Router 2
     93: global: SA outport set to 3 for flit 5-0 at Router 2
     93: global: [CB] flit 5-0 entered at Router 2
     94: global: SA flit 3-4 send not allowed at Router 7
     94: global: SA flit 4-4 send not allowed at Router 7
     95: global: SA flit 3-4 send not allowed at Router 7
     95: global: SA flit 4-4 send not allowed at Router 7
     95: global: [IU] flit 5-0 entering port 2 at router 3
     95: global: [IU] flit 5-0 leaving port 2 at router 3
     95: global: SA flit 5-0 send_allowed at Router 3
     95: global: SA outport set to 3 for flit 5-0 at Router 3
     95: global: [CB] flit 5-0 entered at Router 3
     95: global: [IU] flit 6-0 entering port 0 at router 1
     95: global: [IU] flit 6-0 leaving port 0 at router 1
     95: global: SA flit 6-0 send_allowed at Router 1
     95: global: SA outport set to 3 for flit 6-0 at Router 1
     95: global: [CB] flit 6-0 entered at Router 1
     96: global: SA flit 3-4 send not allowed at Router 7
     96: global: SA flit 4-4 send not allowed at Router 7
     97: global: [IU] flit 5-0 entering port 2 at router 7
     97: global: [IU] flit 5-0 leaving port 2 at router 7
     97: global: SA flit 3-4 send not allowed at Router 7
     97: global: SA flit 5-0 send_allowed at Router 7
     97: global: SA outport set to 4 for flit 5-0 at Router 7
     97: global: [CB] flit 5-0 entered at Router 7
     97: global: [IU] flit 6-0 entering port 2 at router 2
     97: global: [IU] flit 6-0 leaving port 2 at router 2
     97: global: SA flit 6-0 send_allowed at Router 2
     97: global: SA outport set to 3 for flit 6-0 at Router 2
     97: global: [CB] flit 6-0 entered at Router 2
     98: global: SA flit 4-4 send not allowed at Router 7
     98: global: SA flit 3-4 send not allowed at Router 7
     99: global: SA flit 4-4 send not allowed at Router 7
     99: global: SA flit 3-4 send not allowed at Router 7
     99: global: [IU] flit 2-4 entering port 2 at router 11
     99: global: flit 2-4 lastflit 392849568-21916 stalled
     99: global: [IU] flit 6-0 entering port 2 at router 3
     99: global: [IU] flit 6-0 leaving port 2 at router 3
     99: global: SA flit 6-0 send_allowed at Router 3
     99: global: SA outport set to 3 for flit 6-0 at Router 3
     99: global: [CB] flit 6-0 entered at Router 3
    100: global: SA flit 4-4 send not allowed at Router 7
    100: global: SA flit 3-4 send not allowed at Router 7
    101: global: [IU] flit 6-0 entering port 2 at router 7
    101: global: [IU] flit 6-0 leaving port 2 at router 7
    101: global: SA flit 4-4 send not allowed at Router 7
    101: global: SA flit 3-4 send not allowed at Router 7
    101: global: SA flit 6-0 send_allowed at Router 7
    101: global: SA outport set to 4 for flit 6-0 at Router 7
    101: global: [CB] flit 6-0 entered at Router 7
    102: global: SA flit 4-4 send not allowed at Router 7
    102: global: SA flit 3-4 send not allowed at Router 7
    103: global: SA flit 4-4 send not allowed at Router 7
    103: global: SA flit 3-4 send not allowed at Router 7
    103: global: [IU] flit 2-4 entering port 2 at router 11
    103: global: flit 2-4 lastflit 392849568-21916 stalled
    104: global: SA flit 4-4 send not allowed at Router 7
    104: global: SA flit 3-4 send not allowed at Router 7
    105: global: SA flit 4-4 send not allowed at Router 7
    105: global: SA flit 3-4 send not allowed at Router 7
    106: global: SA flit 4-4 send not allowed at Router 7
    106: global: SA flit 3-4 send not allowed at Router 7
    107: global: SA flit 4-4 send not allowed at Router 7
    107: global: SA flit 3-4 send not allowed at Router 7
    108: global: SA flit 4-4 send not allowed at Router 7
    108: global: SA flit 3-4 send not allowed at Router 7
    109: global: SA flit 4-4 send not allowed at Router 7
    109: global: SA flit 3-4 send not allowed at Router 7
    110: global: SA flit 4-4 send not allowed at Router 7
    110: global: SA flit 3-4 send not allowed at Router 7
    111: global: SA flit 4-4 send not allowed at Router 7
    111: global: SA flit 3-4 send not allowed at Router 7
    112: global: SA flit 4-4 send not allowed at Router 7
    112: global: SA flit 3-4 send not allowed at Router 7
    113: global: SA flit 4-4 send not allowed at Router 7
    113: global: SA flit 3-4 send not allowed at Router 7
    114: global: SA flit 4-4 send not allowed at Router 7
    114: global: SA flit 3-4 send not allowed at Router 7
    115: global: SA flit 4-4 send not allowed at Router 7
    115: global: SA flit 3-4 send not allowed at Router 7
    116: global: SA flit 4-4 send not allowed at Router 7
    116: global: SA flit 3-4 send not allowed at Router 7
    117: global: SA flit 4-4 send not allowed at Router 7
    117: global: SA flit 3-4 send not allowed at Router 7
    118: global: SA flit 4-4 send not allowed at Router 7
    118: global: SA flit 3-4 send not allowed at Router 7
    119: global: SA flit 4-4 send not allowed at Router 7
    119: global: SA flit 3-4 send not allowed at Router 7
    120: global: SA flit 4-4 send not allowed at Router 7
    120: global: SA flit 3-4 send not allowed at Router 7
    121: global: SA flit 4-4 send not allowed at Router 7
    121: global: SA flit 3-4 send not allowed at Router 7
    122: global: SA flit 4-4 send not allowed at Router 7
    122: global: SA flit 3-4 send not allowed at Router 7
    123: global: SA flit 4-4 send not allowed at Router 7
    123: global: SA flit 3-4 send not allowed at Router 7
    124: global: SA flit 4-4 send not allowed at Router 7
    124: global: SA flit 3-4 send not allowed at Router 7
    125: global: SA flit 4-4 send not allowed at Router 7
    125: global: SA flit 3-4 send not allowed at Router 7
    126: global: SA flit 4-4 send not allowed at Router 7
    126: global: SA flit 3-4 send not allowed at Router 7
    127: global: SA flit 4-4 send not allowed at Router 7
    127: global: SA flit 3-4 send not allowed at Router 7
    128: global: SA flit 4-4 send not allowed at Router 7
    128: global: SA flit 3-4 send not allowed at Router 7
    129: global: SA flit 4-4 send not allowed at Router 7
    129: global: SA flit 3-4 send not allowed at Router 7
    130: global: SA flit 4-4 send not allowed at Router 7
    130: global: SA flit 3-4 send not allowed at Router 7
    131: global: SA flit 4-4 send not allowed at Router 7
    131: global: SA flit 3-4 send not allowed at Router 7
    132: global: SA flit 4-4 send not allowed at Router 7
    132: global: SA flit 3-4 send not allowed at Router 7
    133: global: SA flit 4-4 send not allowed at Router 7
    133: global: SA flit 3-4 send not allowed at Router 7
    134: global: SA flit 4-4 send not allowed at Router 7
    134: global: SA flit 3-4 send not allowed at Router 7
    135: global: SA flit 4-4 send not allowed at Router 7
    135: global: SA flit 3-4 send not allowed at Router 7
    136: global: SA flit 4-4 send not allowed at Router 7
    136: global: SA flit 3-4 send not allowed at Router 7
    137: global: SA flit 4-4 send not allowed at Router 7
    137: global: SA flit 3-4 send not allowed at Router 7
    138: global: SA flit 4-4 send not allowed at Router 7
    138: global: SA flit 3-4 send not allowed at Router 7
    139: global: SA flit 4-4 send not allowed at Router 7
    139: global: SA flit 3-4 send not allowed at Router 7
    140: global: SA flit 4-4 send not allowed at Router 7
    140: global: SA flit 3-4 send not allowed at Router 7
    141: global: SA flit 4-4 send not allowed at Router 7
    141: global: SA flit 3-4 send not allowed at Router 7
    142: global: SA flit 4-4 send not allowed at Router 7
    142: global: SA flit 3-4 send not allowed at Router 7
    143: global: SA flit 4-4 send not allowed at Router 7
    143: global: SA flit 3-4 send not allowed at Router 7
    144: global: SA flit 4-4 send not allowed at Router 7
    144: global: SA flit 3-4 send not allowed at Router 7
    145: global: SA flit 4-4 send not allowed at Router 7
    145: global: SA flit 3-4 send not allowed at Router 7
    146: global: SA flit 4-4 send not allowed at Router 7
    146: global: SA flit 3-4 send not allowed at Router 7
    147: global: SA flit 4-4 send not allowed at Router 7
    147: global: SA flit 3-4 send not allowed at Router 7
    148: global: SA flit 4-4 send not allowed at Router 7
    148: global: SA flit 3-4 send not allowed at Router 7
    149: global: SA flit 4-4 send not allowed at Router 7
    149: global: SA flit 3-4 send not allowed at Router 7
    150: global: SA flit 4-4 send not allowed at Router 7
    150: global: SA flit 3-4 send not allowed at Router 7
    151: global: SA flit 4-4 send not allowed at Router 7
    151: global: SA flit 3-4 send not allowed at Router 7
    152: global: SA flit 4-4 send not allowed at Router 7
    152: global: SA flit 3-4 send not allowed at Router 7
    153: global: SA flit 4-4 send not allowed at Router 7
    153: global: SA flit 3-4 send not allowed at Router 7
    154: global: SA flit 4-4 send not allowed at Router 7
    154: global: SA flit 3-4 send not allowed at Router 7
    155: global: SA flit 4-4 send not allowed at Router 7
    155: global: SA flit 3-4 send not allowed at Router 7
    156: global: SA flit 4-4 send not allowed at Router 7
    156: global: SA flit 3-4 send not allowed at Router 7
    157: global: SA flit 4-4 send not allowed at Router 7
    157: global: SA flit 3-4 send not allowed at Router 7
    158: global: SA flit 4-4 send not allowed at Router 7
    158: global: SA flit 3-4 send not allowed at Router 7
    159: global: SA flit 4-4 send not allowed at Router 7
    159: global: SA flit 3-4 send not allowed at Router 7
    160: global: SA flit 4-4 send not allowed at Router 7
    160: global: SA flit 3-4 send not allowed at Router 7
    161: global: SA flit 4-4 send not allowed at Router 7
    161: global: SA flit 3-4 send not allowed at Router 7
    162: global: SA flit 4-4 send not allowed at Router 7
    162: global: SA flit 3-4 send not allowed at Router 7
    163: global: SA flit 4-4 send not allowed at Router 7
    163: global: SA flit 3-4 send not allowed at Router 7
    164: global: SA flit 4-4 send not allowed at Router 7
    164: global: SA flit 3-4 send not allowed at Router 7
    165: global: SA flit 4-4 send not allowed at Router 7
    165: global: SA flit 3-4 send not allowed at Router 7
    166: global: SA flit 4-4 send not allowed at Router 7
    166: global: SA flit 3-4 send not allowed at Router 7
    167: global: SA flit 4-4 send not allowed at Router 7
    167: global: SA flit 3-4 send not allowed at Router 7
    168: global: SA flit 4-4 send not allowed at Router 7
    168: global: SA flit 3-4 send not allowed at Router 7
    169: global: SA flit 4-4 send not allowed at Router 7
    169: global: SA flit 3-4 send not allowed at Router 7
    170: global: SA flit 4-4 send not allowed at Router 7
    170: global: SA flit 3-4 send not allowed at Router 7
    171: global: SA flit 4-4 send not allowed at Router 7
    171: global: SA flit 3-4 send not allowed at Router 7
    172: global: SA flit 4-4 send not allowed at Router 7
    172: global: SA flit 3-4 send not allowed at Router 7
    173: global: SA flit 4-4 send not allowed at Router 7
    173: global: SA flit 3-4 send not allowed at Router 7
    174: global: SA flit 4-4 send not allowed at Router 7
    174: global: SA flit 3-4 send not allowed at Router 7
    175: global: SA flit 4-4 send not allowed at Router 7
    175: global: SA flit 3-4 send not allowed at Router 7
    176: global: SA flit 4-4 send not allowed at Router 7
    176: global: SA flit 3-4 send not allowed at Router 7
    177: global: SA flit 4-4 send not allowed at Router 7
    177: global: SA flit 3-4 send not allowed at Router 7
    178: global: SA flit 4-4 send not allowed at Router 7
    178: global: SA flit 3-4 send not allowed at Router 7
    179: global: SA flit 4-4 send not allowed at Router 7
    179: global: SA flit 3-4 send not allowed at Router 7
    180: global: SA flit 4-4 send not allowed at Router 7
    180: global: SA flit 3-4 send not allowed at Router 7
    181: global: SA flit 4-4 send not allowed at Router 7
    181: global: SA flit 3-4 send not allowed at Router 7
    182: global: SA flit 4-4 send not allowed at Router 7
    182: global: SA flit 3-4 send not allowed at Router 7
    183: global: SA flit 4-4 send not allowed at Router 7
    183: global: SA flit 3-4 send not allowed at Router 7
    184: global: SA flit 4-4 send not allowed at Router 7
    184: global: SA flit 3-4 send not allowed at Router 7
    185: global: SA flit 4-4 send not allowed at Router 7
    185: global: SA flit 3-4 send not allowed at Router 7
    186: global: SA flit 4-4 send not allowed at Router 7
    186: global: SA flit 3-4 send not allowed at Router 7
    187: global: SA flit 4-4 send not allowed at Router 7
    187: global: SA flit 3-4 send not allowed at Router 7
    188: global: SA flit 4-4 send not allowed at Router 7
    188: global: SA flit 3-4 send not allowed at Router 7
    189: global: SA flit 4-4 send not allowed at Router 7
    189: global: SA flit 3-4 send not allowed at Router 7
    190: global: SA flit 4-4 send not allowed at Router 7
    190: global: SA flit 3-4 send not allowed at Router 7
    191: global: SA flit 4-4 send not allowed at Router 7
    191: global: SA flit 3-4 send not allowed at Router 7
    192: global: SA flit 4-4 send not allowed at Router 7
    192: global: SA flit 3-4 send not allowed at Router 7
    193: global: SA flit 4-4 send not allowed at Router 7
    193: global: SA flit 3-4 send not allowed at Router 7
    194: global: SA flit 4-4 send not allowed at Router 7
    194: global: SA flit 3-4 send not allowed at Router 7
    195: global: SA flit 4-4 send not allowed at Router 7
    195: global: SA flit 3-4 send not allowed at Router 7
    196: global: SA flit 4-4 send not allowed at Router 7
    196: global: SA flit 3-4 send not allowed at Router 7
    197: global: SA flit 4-4 send not allowed at Router 7
    197: global: SA flit 3-4 send not allowed at Router 7
    198: global: SA flit 4-4 send not allowed at Router 7
    198: global: SA flit 3-4 send not allowed at Router 7
    199: global: SA flit 4-4 send not allowed at Router 7
    199: global: SA flit 3-4 send not allowed at Router 7
    200: global: SA flit 4-4 send not allowed at Router 7
    200: global: SA flit 3-4 send not allowed at Router 7
    201: global: SA flit 4-4 send not allowed at Router 7
    201: global: SA flit 3-4 send not allowed at Router 7
    202: global: SA flit 4-4 send not allowed at Router 7
    202: global: SA flit 3-4 send not allowed at Router 7
    203: global: SA flit 4-4 send not allowed at Router 7
    203: global: SA flit 3-4 send not allowed at Router 7
    204: global: SA flit 4-4 send not allowed at Router 7
    204: global: SA flit 3-4 send not allowed at Router 7
    205: global: SA flit 4-4 send not allowed at Router 7
    205: global: SA flit 3-4 send not allowed at Router 7
    206: global: SA flit 4-4 send not allowed at Router 7
    206: global: SA flit 3-4 send not allowed at Router 7
    207: global: SA flit 4-4 send not allowed at Router 7
    207: global: SA flit 3-4 send not allowed at Router 7
    208: global: SA flit 4-4 send not allowed at Router 7
    208: global: SA flit 3-4 send not allowed at Router 7
    209: global: SA flit 4-4 send not allowed at Router 7
    209: global: SA flit 3-4 send not allowed at Router 7
    210: global: SA flit 4-4 send not allowed at Router 7
    210: global: SA flit 3-4 send not allowed at Router 7
    211: global: SA flit 4-4 send not allowed at Router 7
    211: global: SA flit 3-4 send not allowed at Router 7
    212: global: SA flit 4-4 send not allowed at Router 7
    212: global: SA flit 3-4 send not allowed at Router 7
    213: global: SA flit 4-4 send not allowed at Router 7
    213: global: SA flit 3-4 send not allowed at Router 7
    214: global: SA flit 4-4 send not allowed at Router 7
    214: global: SA flit 3-4 send not allowed at Router 7
    215: global: SA flit 4-4 send not allowed at Router 7
    215: global: SA flit 3-4 send not allowed at Router 7
    216: global: SA flit 4-4 send not allowed at Router 7
    216: global: SA flit 3-4 send not allowed at Router 7
    217: global: SA flit 4-4 send not allowed at Router 7
    217: global: SA flit 3-4 send not allowed at Router 7
    218: global: SA flit 4-4 send not allowed at Router 7
    218: global: SA flit 3-4 send not allowed at Router 7
    219: global: SA flit 4-4 send not allowed at Router 7
    219: global: SA flit 3-4 send not allowed at Router 7
    220: global: SA flit 4-4 send not allowed at Router 7
    220: global: SA flit 3-4 send not allowed at Router 7
    221: global: SA flit 4-4 send not allowed at Router 7
    221: global: SA flit 3-4 send not allowed at Router 7
    222: global: SA flit 4-4 send not allowed at Router 7
    222: global: SA flit 3-4 send not allowed at Router 7
    223: global: SA flit 4-4 send not allowed at Router 7
    223: global: SA flit 3-4 send not allowed at Router 7
    224: global: SA flit 4-4 send not allowed at Router 7
    224: global: SA flit 3-4 send not allowed at Router 7
    224: global: [IU] flit 7-0 entering port 0 at router 1
    224: global: [IU] flit 7-0 leaving port 0 at router 1
    224: global: SA flit 7-0 send_allowed at Router 1
    224: global: SA outport set to 3 for flit 7-0 at Router 1
    224: global: [CB] flit 7-0 entered at Router 1
    225: global: SA flit 4-4 send not allowed at Router 7
    225: global: SA flit 3-4 send not allowed at Router 7
    226: global: SA flit 4-4 send not allowed at Router 7
    226: global: SA flit 3-4 send not allowed at Router 7
    226: global: [IU] flit 7-0 entering port 2 at router 2
    226: global: [IU] flit 7-0 leaving port 2 at router 2
    226: global: SA flit 7-0 send_allowed at Router 2
    226: global: SA outport set to 3 for flit 7-0 at Router 2
    226: global: [CB] flit 7-0 entered at Router 2
    227: global: SA flit 4-4 send not allowed at Router 7
    227: global: SA flit 3-4 send not allowed at Router 7
    228: global: SA flit 4-4 send not allowed at Router 7
    228: global: SA flit 3-4 send not allowed at Router 7
    228: global: [IU] flit 7-0 entering port 2 at router 3
    228: global: [IU] flit 7-0 leaving port 2 at router 3
    228: global: SA flit 7-0 send_allowed at Router 3
    228: global: SA outport set to 3 for flit 7-0 at Router 3
    228: global: [CB] flit 7-0 entered at Router 3
    229: global: SA flit 4-4 send not allowed at Router 7
    229: global: SA flit 3-4 send not allowed at Router 7
    230: global: [IU] flit 7-0 entering port 2 at router 7
    230: global: [IU] flit 7-0 leaving port 2 at router 7
    230: global: SA flit 4-4 send not allowed at Router 7
    230: global: SA flit 3-4 send not allowed at Router 7
    230: global: SA flit 7-0 send_allowed at Router 7
    230: global: SA outport set to 4 for flit 7-0 at Router 7
    230: global: [CB] flit 7-0 entered at Router 7
    231: global: SA flit 4-4 send not allowed at Router 7
    231: global: SA flit 3-4 send not allowed at Router 7
    232: global: SA flit 4-4 send not allowed at Router 7
    232: global: SA flit 3-4 send not allowed at Router 7
    232: global: [IU] flit 2-4 entering port 2 at router 11
    232: global: flit 2-4 lastflit 392849568-21916 stalled
    233: global: SA flit 4-4 send not allowed at Router 7
    233: global: SA flit 3-4 send not allowed at Router 7
    234: global: SA flit 4-4 send not allowed at Router 7
    234: global: SA flit 3-4 send not allowed at Router 7
    235: global: SA flit 4-4 send not allowed at Router 7
    235: global: SA flit 3-4 send not allowed at Router 7
    236: global: SA flit 4-4 send not allowed at Router 7
    236: global: SA flit 3-4 send not allowed at Router 7
    237: global: SA flit 4-4 send not allowed at Router 7
    237: global: SA flit 3-4 send not allowed at Router 7
    238: global: SA flit 4-4 send not allowed at Router 7
    238: global: SA flit 3-4 send not allowed at Router 7
    239: global: SA flit 4-4 send not allowed at Router 7
    239: global: SA flit 3-4 send not allowed at Router 7
    240: global: SA flit 4-4 send not allowed at Router 7
    240: global: SA flit 3-4 send not allowed at Router 7
    241: global: SA flit 4-4 send not allowed at Router 7
    241: global: SA flit 3-4 send not allowed at Router 7
    242: global: SA flit 4-4 send not allowed at Router 7
    242: global: SA flit 3-4 send not allowed at Router 7
    243: global: SA flit 4-4 send not allowed at Router 7
    243: global: SA flit 3-4 send not allowed at Router 7
    244: global: SA flit 4-4 send not allowed at Router 7
    244: global: SA flit 3-4 send not allowed at Router 7
    245: global: SA flit 4-4 send not allowed at Router 7
    245: global: SA flit 3-4 send not allowed at Router 7
    246: global: SA flit 4-4 send not allowed at Router 7
    246: global: SA flit 3-4 send not allowed at Router 7
    247: global: SA flit 4-4 send not allowed at Router 7
    247: global: SA flit 3-4 send not allowed at Router 7
    248: global: SA flit 4-4 send not allowed at Router 7
    248: global: SA flit 3-4 send not allowed at Router 7
    249: global: SA flit 4-4 send not allowed at Router 7
    249: global: SA flit 3-4 send not allowed at Router 7
    250: global: SA flit 4-4 send not allowed at Router 7
    250: global: SA flit 3-4 send not allowed at Router 7
    251: global: SA flit 4-4 send not allowed at Router 7
    251: global: SA flit 3-4 send not allowed at Router 7
    252: global: SA flit 4-4 send not allowed at Router 7
    252: global: SA flit 3-4 send not allowed at Router 7
    253: global: SA flit 4-4 send not allowed at Router 7
    253: global: SA flit 3-4 send not allowed at Router 7
    254: global: SA flit 4-4 send not allowed at Router 7
    254: global: SA flit 3-4 send not allowed at Router 7
    255: global: SA flit 4-4 send not allowed at Router 7
    255: global: SA flit 3-4 send not allowed at Router 7
    256: global: SA flit 4-4 send not allowed at Router 7
    256: global: SA flit 3-4 send not allowed at Router 7
    257: global: SA flit 4-4 send not allowed at Router 7
    257: global: SA flit 3-4 send not allowed at Router 7
    258: global: SA flit 4-4 send not allowed at Router 7
    258: global: SA flit 3-4 send not allowed at Router 7
    259: global: SA flit 4-4 send not allowed at Router 7
    259: global: SA flit 3-4 send not allowed at Router 7
    260: global: SA flit 4-4 send not allowed at Router 7
    260: global: SA flit 3-4 send not allowed at Router 7
    261: global: SA flit 4-4 send not allowed at Router 7
    261: global: SA flit 3-4 send not allowed at Router 7
    262: global: SA flit 4-4 send not allowed at Router 7
    262: global: SA flit 3-4 send not allowed at Router 7
    263: global: SA flit 4-4 send not allowed at Router 7
    263: global: SA flit 3-4 send not allowed at Router 7
    264: global: SA flit 4-4 send not allowed at Router 7
    264: global: SA flit 3-4 send not allowed at Router 7
    265: global: SA flit 4-4 send not allowed at Router 7
    265: global: SA flit 3-4 send not allowed at Router 7
    266: global: SA flit 4-4 send not allowed at Router 7
    266: global: SA flit 3-4 send not allowed at Router 7
    267: global: SA flit 4-4 send not allowed at Router 7
    267: global: SA flit 3-4 send not allowed at Router 7
    268: global: SA flit 4-4 send not allowed at Router 7
    268: global: SA flit 3-4 send not allowed at Router 7
    269: global: SA flit 4-4 send not allowed at Router 7
    269: global: SA flit 3-4 send not allowed at Router 7
    270: global: SA flit 4-4 send not allowed at Router 7
    270: global: SA flit 3-4 send not allowed at Router 7
    271: global: SA flit 4-4 send not allowed at Router 7
    271: global: SA flit 3-4 send not allowed at Router 7
    272: global: SA flit 4-4 send not allowed at Router 7
    272: global: SA flit 3-4 send not allowed at Router 7
    273: global: SA flit 4-4 send not allowed at Router 7
    273: global: SA flit 3-4 send not allowed at Router 7
    274: global: SA flit 4-4 send not allowed at Router 7
    274: global: SA flit 3-4 send not allowed at Router 7
    275: global: SA flit 4-4 send not allowed at Router 7
    275: global: SA flit 3-4 send not allowed at Router 7
    276: global: SA flit 4-4 send not allowed at Router 7
    276: global: SA flit 3-4 send not allowed at Router 7
    277: global: SA flit 4-4 send not allowed at Router 7
    277: global: SA flit 3-4 send not allowed at Router 7
    278: global: SA flit 4-4 send not allowed at Router 7
    278: global: SA flit 3-4 send not allowed at Router 7
    279: global: SA flit 4-4 send not allowed at Router 7
    279: global: SA flit 3-4 send not allowed at Router 7
    280: global: SA flit 4-4 send not allowed at Router 7
    280: global: SA flit 3-4 send not allowed at Router 7
    281: global: SA flit 4-4 send not allowed at Router 7
    281: global: SA flit 3-4 send not allowed at Router 7
    282: global: SA flit 4-4 send not allowed at Router 7
    282: global: SA flit 3-4 send not allowed at Router 7
    283: global: SA flit 4-4 send not allowed at Router 7
    283: global: SA flit 3-4 send not allowed at Router 7
    284: global: SA flit 4-4 send not allowed at Router 7
    284: global: SA flit 3-4 send not allowed at Router 7
    285: global: SA flit 4-4 send not allowed at Router 7
    285: global: SA flit 3-4 send not allowed at Router 7
    286: global: SA flit 4-4 send not allowed at Router 7
    286: global: SA flit 3-4 send not allowed at Router 7
    287: global: SA flit 4-4 send not allowed at Router 7
    287: global: SA flit 3-4 send not allowed at Router 7
    288: global: SA flit 4-4 send not allowed at Router 7
    288: global: SA flit 3-4 send not allowed at Router 7
    289: global: SA flit 4-4 send not allowed at Router 7
    289: global: SA flit 3-4 send not allowed at Router 7
    290: global: SA flit 4-4 send not allowed at Router 7
    290: global: SA flit 3-4 send not allowed at Router 7
    291: global: SA flit 4-4 send not allowed at Router 7
    291: global: SA flit 3-4 send not allowed at Router 7
    292: global: SA flit 4-4 send not allowed at Router 7
    292: global: SA flit 3-4 send not allowed at Router 7
    293: global: SA flit 4-4 send not allowed at Router 7
    293: global: SA flit 3-4 send not allowed at Router 7
    294: global: SA flit 4-4 send not allowed at Router 7
    294: global: SA flit 3-4 send not allowed at Router 7
    295: global: SA flit 4-4 send not allowed at Router 7
    295: global: SA flit 3-4 send not allowed at Router 7
    296: global: SA flit 4-4 send not allowed at Router 7
    296: global: SA flit 3-4 send not allowed at Router 7
    297: global: SA flit 4-4 send not allowed at Router 7
    297: global: SA flit 3-4 send not allowed at Router 7
    298: global: SA flit 4-4 send not allowed at Router 7
    298: global: SA flit 3-4 send not allowed at Router 7
    299: global: SA flit 4-4 send not allowed at Router 7
    299: global: SA flit 3-4 send not allowed at Router 7
    300: global: SA flit 4-4 send not allowed at Router 7
    300: global: SA flit 3-4 send not allowed at Router 7
    301: global: SA flit 4-4 send not allowed at Router 7
    301: global: SA flit 3-4 send not allowed at Router 7
    302: global: SA flit 4-4 send not allowed at Router 7
    302: global: SA flit 3-4 send not allowed at Router 7
    303: global: SA flit 4-4 send not allowed at Router 7
    303: global: SA flit 3-4 send not allowed at Router 7
    304: global: SA flit 4-4 send not allowed at Router 7
    304: global: SA flit 3-4 send not allowed at Router 7
    305: global: SA flit 4-4 send not allowed at Router 7
    305: global: SA flit 3-4 send not allowed at Router 7
    306: global: SA flit 4-4 send not allowed at Router 7
    306: global: SA flit 3-4 send not allowed at Router 7
    307: global: SA flit 4-4 send not allowed at Router 7
    307: global: SA flit 3-4 send not allowed at Router 7
    308: global: SA flit 4-4 send not allowed at Router 7
    308: global: SA flit 3-4 send not allowed at Router 7
    309: global: SA flit 4-4 send not allowed at Router 7
    309: global: SA flit 3-4 send not allowed at Router 7
    310: global: SA flit 4-4 send not allowed at Router 7
    310: global: SA flit 3-4 send not allowed at Router 7
    310: global: [IU] flit 8-0 entering port 0 at router 1
    310: global: [IU] flit 8-0 leaving port 0 at router 1
    310: global: SA flit 8-0 send_allowed at Router 1
    310: global: SA outport set to 3 for flit 8-0 at Router 1
    310: global: [CB] flit 8-0 entered at Router 1
    311: global: SA flit 4-4 send not allowed at Router 7
    311: global: SA flit 3-4 send not allowed at Router 7
    312: global: SA flit 4-4 send not allowed at Router 7
    312: global: SA flit 3-4 send not allowed at Router 7
    312: global: [IU] flit 8-0 entering port 2 at router 2
    312: global: [IU] flit 8-0 leaving port 2 at router 2
    312: global: SA flit 8-0 send_allowed at Router 2
    312: global: SA outport set to 3 for flit 8-0 at Router 2
    312: global: [CB] flit 8-0 entered at Router 2
    313: global: SA flit 4-4 send not allowed at Router 7
    313: global: SA flit 3-4 send not allowed at Router 7
    314: global: SA flit 4-4 send not allowed at Router 7
    314: global: SA flit 3-4 send not allowed at Router 7
    314: global: [IU] flit 8-0 entering port 2 at router 3
    314: global: [IU] flit 8-0 leaving port 2 at router 3
    314: global: SA flit 8-0 send_allowed at Router 3
    314: global: SA outport set to 3 for flit 8-0 at Router 3
    314: global: [CB] flit 8-0 entered at Router 3
    315: global: SA flit 4-4 send not allowed at Router 7
    315: global: SA flit 3-4 send not allowed at Router 7
    316: global: [IU] flit 8-0 entering port 2 at router 7
    316: global: [IU] flit 8-0 leaving port 2 at router 7
    316: global: SA flit 8-0 send_allowed at Router 7
    316: global: SA outport set to 4 for flit 8-0 at Router 7
    316: global: [CB] flit 8-0 entered at Router 7
    317: global: SA flit 4-4 send not allowed at Router 7
    317: global: SA flit 3-4 send not allowed at Router 7
    318: global: SA flit 4-4 send not allowed at Router 7
    318: global: SA flit 3-4 send not allowed at Router 7
    318: global: [IU] flit 2-4 entering port 2 at router 11
    318: global: flit 2-4 lastflit 392849568-21916 stalled
    319: global: SA flit 4-4 send not allowed at Router 7
    319: global: SA flit 3-4 send not allowed at Router 7
    320: global: SA flit 4-4 send not allowed at Router 7
    320: global: SA flit 3-4 send not allowed at Router 7
    321: global: SA flit 4-4 send not allowed at Router 7
    321: global: SA flit 3-4 send not allowed at Router 7
    322: global: SA flit 4-4 send not allowed at Router 7
    322: global: SA flit 3-4 send not allowed at Router 7
    323: global: SA flit 4-4 send not allowed at Router 7
    323: global: SA flit 3-4 send not allowed at Router 7
    324: global: SA flit 4-4 send not allowed at Router 7
    324: global: SA flit 3-4 send not allowed at Router 7
    325: global: SA flit 4-4 send not allowed at Router 7
    325: global: SA flit 3-4 send not allowed at Router 7
    326: global: SA flit 4-4 send not allowed at Router 7
    326: global: SA flit 3-4 send not allowed at Router 7
    327: global: SA flit 4-4 send not allowed at Router 7
    327: global: SA flit 3-4 send not allowed at Router 7
    328: global: SA flit 4-4 send not allowed at Router 7
    328: global: SA flit 3-4 send not allowed at Router 7
    329: global: SA flit 4-4 send not allowed at Router 7
    329: global: SA flit 3-4 send not allowed at Router 7
    330: global: SA flit 4-4 send not allowed at Router 7
    330: global: SA flit 3-4 send not allowed at Router 7
    331: global: SA flit 4-4 send not allowed at Router 7
    331: global: SA flit 3-4 send not allowed at Router 7
    332: global: SA flit 4-4 send not allowed at Router 7
    332: global: SA flit 3-4 send not allowed at Router 7
    333: global: SA flit 4-4 send not allowed at Router 7
    333: global: SA flit 3-4 send not allowed at Router 7
    334: global: SA flit 4-4 send not allowed at Router 7
    334: global: SA flit 3-4 send not allowed at Router 7
    335: global: SA flit 4-4 send not allowed at Router 7
    335: global: SA flit 3-4 send not allowed at Router 7
    336: global: SA flit 4-4 send not allowed at Router 7
    336: global: SA flit 3-4 send not allowed at Router 7
    337: global: SA flit 4-4 send not allowed at Router 7
    337: global: SA flit 3-4 send not allowed at Router 7
    338: global: SA flit 4-4 send not allowed at Router 7
    338: global: SA flit 3-4 send not allowed at Router 7
    339: global: SA flit 4-4 send not allowed at Router 7
    339: global: SA flit 3-4 send not allowed at Router 7
    340: global: SA flit 4-4 send not allowed at Router 7
    340: global: SA flit 3-4 send not allowed at Router 7
    341: global: SA flit 4-4 send not allowed at Router 7
    341: global: SA flit 3-4 send not allowed at Router 7
    342: global: SA flit 4-4 send not allowed at Router 7
    342: global: SA flit 3-4 send not allowed at Router 7
    343: global: SA flit 4-4 send not allowed at Router 7
    343: global: SA flit 3-4 send not allowed at Router 7
    344: global: SA flit 4-4 send not allowed at Router 7
    344: global: SA flit 3-4 send not allowed at Router 7
    345: global: SA flit 4-4 send not allowed at Router 7
    345: global: SA flit 3-4 send not allowed at Router 7
    346: global: SA flit 4-4 send not allowed at Router 7
    346: global: SA flit 3-4 send not allowed at Router 7
    347: global: SA flit 4-4 send not allowed at Router 7
    347: global: SA flit 3-4 send not allowed at Router 7
    348: global: SA flit 4-4 send not allowed at Router 7
    348: global: SA flit 3-4 send not allowed at Router 7
    349: global: SA flit 4-4 send not allowed at Router 7
    349: global: SA flit 3-4 send not allowed at Router 7
    350: global: SA flit 4-4 send not allowed at Router 7
    350: global: SA flit 3-4 send not allowed at Router 7
    351: global: SA flit 4-4 send not allowed at Router 7
    351: global: SA flit 3-4 send not allowed at Router 7
    352: global: SA flit 4-4 send not allowed at Router 7
    352: global: SA flit 3-4 send not allowed at Router 7
    353: global: SA flit 4-4 send not allowed at Router 7
    353: global: SA flit 3-4 send not allowed at Router 7
    354: global: SA flit 4-4 send not allowed at Router 7
    354: global: SA flit 3-4 send not allowed at Router 7
    355: global: SA flit 4-4 send not allowed at Router 7
    355: global: SA flit 3-4 send not allowed at Router 7
    356: global: SA flit 4-4 send not allowed at Router 7
    356: global: SA flit 3-4 send not allowed at Router 7
    357: global: SA flit 4-4 send not allowed at Router 7
    357: global: SA flit 3-4 send not allowed at Router 7
    358: global: SA flit 4-4 send not allowed at Router 7
    358: global: SA flit 3-4 send not allowed at Router 7
    359: global: SA flit 4-4 send not allowed at Router 7
    359: global: SA flit 3-4 send not allowed at Router 7
    360: global: SA flit 4-4 send not allowed at Router 7
    360: global: SA flit 3-4 send not allowed at Router 7
    361: global: SA flit 4-4 send not allowed at Router 7
    361: global: SA flit 3-4 send not allowed at Router 7
    362: global: SA flit 4-4 send not allowed at Router 7
    362: global: SA flit 3-4 send not allowed at Router 7
    363: global: SA flit 4-4 send not allowed at Router 7
    363: global: SA flit 3-4 send not allowed at Router 7
    364: global: SA flit 4-4 send not allowed at Router 7
    364: global: SA flit 3-4 send not allowed at Router 7
    365: global: SA flit 4-4 send not allowed at Router 7
    365: global: SA flit 3-4 send not allowed at Router 7
    366: global: SA flit 4-4 send not allowed at Router 7
    366: global: SA flit 3-4 send not allowed at Router 7
    367: global: SA flit 4-4 send not allowed at Router 7
    367: global: SA flit 3-4 send not allowed at Router 7
    368: global: SA flit 4-4 send not allowed at Router 7
    368: global: SA flit 3-4 send not allowed at Router 7
    369: global: SA flit 4-4 send not allowed at Router 7
    369: global: SA flit 3-4 send not allowed at Router 7
    370: global: SA flit 4-4 send not allowed at Router 7
    370: global: SA flit 3-4 send not allowed at Router 7
    371: global: SA flit 4-4 send not allowed at Router 7
    371: global: SA flit 3-4 send not allowed at Router 7
    372: global: SA flit 4-4 send not allowed at Router 7
    372: global: SA flit 3-4 send not allowed at Router 7
    373: global: SA flit 4-4 send not allowed at Router 7
    373: global: SA flit 3-4 send not allowed at Router 7
    374: global: SA flit 4-4 send not allowed at Router 7
    374: global: SA flit 3-4 send not allowed at Router 7
    375: global: SA flit 4-4 send not allowed at Router 7
    375: global: SA flit 3-4 send not allowed at Router 7
    376: global: SA flit 4-4 send not allowed at Router 7
    376: global: SA flit 3-4 send not allowed at Router 7
    377: global: SA flit 4-4 send not allowed at Router 7
    377: global: SA flit 3-4 send not allowed at Router 7
    378: global: SA flit 4-4 send not allowed at Router 7
    378: global: SA flit 3-4 send not allowed at Router 7
    379: global: SA flit 4-4 send not allowed at Router 7
    379: global: SA flit 3-4 send not allowed at Router 7
    380: global: SA flit 4-4 send not allowed at Router 7
    380: global: SA flit 3-4 send not allowed at Router 7
    381: global: SA flit 4-4 send not allowed at Router 7
    381: global: SA flit 3-4 send not allowed at Router 7
    382: global: SA flit 4-4 send not allowed at Router 7
    382: global: SA flit 3-4 send not allowed at Router 7
    383: global: SA flit 4-4 send not allowed at Router 7
    383: global: SA flit 3-4 send not allowed at Router 7
    384: global: SA flit 4-4 send not allowed at Router 7
    384: global: SA flit 3-4 send not allowed at Router 7
    385: global: SA flit 4-4 send not allowed at Router 7
    385: global: SA flit 3-4 send not allowed at Router 7
    386: global: SA flit 4-4 send not allowed at Router 7
    386: global: SA flit 3-4 send not allowed at Router 7
    387: global: SA flit 4-4 send not allowed at Router 7
    387: global: SA flit 3-4 send not allowed at Router 7
    388: global: SA flit 4-4 send not allowed at Router 7
    388: global: SA flit 3-4 send not allowed at Router 7
    389: global: SA flit 4-4 send not allowed at Router 7
    389: global: SA flit 3-4 send not allowed at Router 7
    390: global: SA flit 4-4 send not allowed at Router 7
    390: global: SA flit 3-4 send not allowed at Router 7
    391: global: SA flit 4-4 send not allowed at Router 7
    391: global: SA flit 3-4 send not allowed at Router 7
    392: global: SA flit 4-4 send not allowed at Router 7
    392: global: SA flit 3-4 send not allowed at Router 7
    393: global: SA flit 4-4 send not allowed at Router 7
    393: global: SA flit 3-4 send not allowed at Router 7
    394: global: SA flit 4-4 send not allowed at Router 7
    394: global: SA flit 3-4 send not allowed at Router 7
    395: global: SA flit 4-4 send not allowed at Router 7
    395: global: SA flit 3-4 send not allowed at Router 7
    396: global: SA flit 4-4 send not allowed at Router 7
    396: global: SA flit 3-4 send not allowed at Router 7
    397: global: SA flit 4-4 send not allowed at Router 7
    397: global: SA flit 3-4 send not allowed at Router 7
    398: global: SA flit 4-4 send not allowed at Router 7
    398: global: SA flit 3-4 send not allowed at Router 7
    399: global: SA flit 4-4 send not allowed at Router 7
    399: global: SA flit 3-4 send not allowed at Router 7
    400: global: SA flit 4-4 send not allowed at Router 7
    400: global: SA flit 3-4 send not allowed at Router 7
    400: global: [IU] flit 9-0 entering port 0 at router 1
    400: global: [IU] flit 9-0 leaving port 0 at router 1
    400: global: SA flit 9-0 send_allowed at Router 1
    400: global: SA outport set to 3 for flit 9-0 at Router 1
    400: global: [CB] flit 9-0 entered at Router 1
    401: global: SA flit 4-4 send not allowed at Router 7
    401: global: SA flit 3-4 send not allowed at Router 7
    402: global: SA flit 4-4 send not allowed at Router 7
    402: global: SA flit 3-4 send not allowed at Router 7
    402: global: [IU] flit 9-0 entering port 2 at router 2
    402: global: [IU] flit 9-0 leaving port 2 at router 2
    402: global: SA flit 9-0 send_allowed at Router 2
    402: global: SA outport set to 3 for flit 9-0 at Router 2
    402: global: [CB] flit 9-0 entered at Router 2
    403: global: SA flit 4-4 send not allowed at Router 7
    403: global: SA flit 3-4 send not allowed at Router 7
    404: global: SA flit 4-4 send not allowed at Router 7
    404: global: SA flit 3-4 send not allowed at Router 7
    404: global: [IU] flit 9-0 entering port 2 at router 3
    404: global: [IU] flit 9-0 leaving port 2 at router 3
    404: global: SA flit 9-0 send_allowed at Router 3
    404: global: SA outport set to 3 for flit 9-0 at Router 3
    404: global: [CB] flit 9-0 entered at Router 3
    405: global: SA flit 4-4 send not allowed at Router 7
    405: global: SA flit 3-4 send not allowed at Router 7
    406: global: [IU] flit 9-0 entering port 2 at router 7
    406: global: [IU] flit 9-0 leaving port 2 at router 7
    406: global: SA flit 4-4 send not allowed at Router 7
    406: global: SA flit 3-4 send not allowed at Router 7
    406: global: SA flit 9-0 send_allowed at Router 7
    406: global: SA outport set to 4 for flit 9-0 at Router 7
    406: global: [CB] flit 9-0 entered at Router 7
    407: global: SA flit 4-4 send not allowed at Router 7
    407: global: SA flit 3-4 send not allowed at Router 7
    408: global: SA flit 4-4 send not allowed at Router 7
    408: global: SA flit 3-4 send not allowed at Router 7
    408: global: [IU] flit 2-4 entering port 2 at router 11
    408: global: flit 2-4 lastflit 392849568-21916 stalled
    409: global: SA flit 4-4 send not allowed at Router 7
    409: global: SA flit 3-4 send not allowed at Router 7
    410: global: SA flit 4-4 send not allowed at Router 7
    410: global: SA flit 3-4 send not allowed at Router 7
    411: global: SA flit 4-4 send not allowed at Router 7
    411: global: SA flit 3-4 send not allowed at Router 7
    412: global: SA flit 4-4 send not allowed at Router 7
    412: global: SA flit 3-4 send not allowed at Router 7
    413: global: SA flit 4-4 send not allowed at Router 7
    413: global: SA flit 3-4 send not allowed at Router 7
    414: global: SA flit 4-4 send not allowed at Router 7
    414: global: SA flit 3-4 send not allowed at Router 7
    415: global: SA flit 4-4 send not allowed at Router 7
    415: global: SA flit 3-4 send not allowed at Router 7
    416: global: SA flit 4-4 send not allowed at Router 7
    416: global: SA flit 3-4 send not allowed at Router 7
    417: global: SA flit 4-4 send not allowed at Router 7
    417: global: SA flit 3-4 send not allowed at Router 7
    418: global: SA flit 4-4 send not allowed at Router 7
    418: global: SA flit 3-4 send not allowed at Router 7
    419: global: SA flit 4-4 send not allowed at Router 7
    419: global: SA flit 3-4 send not allowed at Router 7
    420: global: SA flit 4-4 send not allowed at Router 7
    420: global: SA flit 3-4 send not allowed at Router 7
    421: global: SA flit 4-4 send not allowed at Router 7
    421: global: SA flit 3-4 send not allowed at Router 7
    422: global: SA flit 4-4 send not allowed at Router 7
    422: global: SA flit 3-4 send not allowed at Router 7
    423: global: SA flit 4-4 send not allowed at Router 7
    423: global: SA flit 3-4 send not allowed at Router 7
    424: global: SA flit 4-4 send not allowed at Router 7
    424: global: SA flit 3-4 send not allowed at Router 7
    425: global: SA flit 4-4 send not allowed at Router 7
    425: global: SA flit 3-4 send not allowed at Router 7
    426: global: SA flit 4-4 send not allowed at Router 7
    426: global: SA flit 3-4 send not allowed at Router 7
    427: global: SA flit 4-4 send not allowed at Router 7
    427: global: SA flit 3-4 send not allowed at Router 7
    428: global: SA flit 4-4 send not allowed at Router 7
    428: global: SA flit 3-4 send not allowed at Router 7
    429: global: SA flit 4-4 send not allowed at Router 7
    429: global: SA flit 3-4 send not allowed at Router 7
    430: global: SA flit 4-4 send not allowed at Router 7
    430: global: SA flit 3-4 send not allowed at Router 7
    431: global: SA flit 4-4 send not allowed at Router 7
    431: global: SA flit 3-4 send not allowed at Router 7
    432: global: SA flit 4-4 send not allowed at Router 7
    432: global: SA flit 3-4 send not allowed at Router 7
    433: global: SA flit 4-4 send not allowed at Router 7
    433: global: SA flit 3-4 send not allowed at Router 7
    434: global: SA flit 4-4 send not allowed at Router 7
    434: global: SA flit 3-4 send not allowed at Router 7
    435: global: SA flit 4-4 send not allowed at Router 7
    435: global: SA flit 3-4 send not allowed at Router 7
    436: global: SA flit 4-4 send not allowed at Router 7
    436: global: SA flit 3-4 send not allowed at Router 7
    437: global: SA flit 4-4 send not allowed at Router 7
    437: global: SA flit 3-4 send not allowed at Router 7
    438: global: SA flit 4-4 send not allowed at Router 7
    438: global: SA flit 3-4 send not allowed at Router 7
    439: global: SA flit 4-4 send not allowed at Router 7
    439: global: SA flit 3-4 send not allowed at Router 7
    440: global: SA flit 4-4 send not allowed at Router 7
    440: global: SA flit 3-4 send not allowed at Router 7
    441: global: SA flit 4-4 send not allowed at Router 7
    441: global: SA flit 3-4 send not allowed at Router 7
    442: global: SA flit 4-4 send not allowed at Router 7
    442: global: SA flit 3-4 send not allowed at Router 7
    443: global: SA flit 4-4 send not allowed at Router 7
    443: global: SA flit 3-4 send not allowed at Router 7
    444: global: SA flit 4-4 send not allowed at Router 7
    444: global: SA flit 3-4 send not allowed at Router 7
    445: global: SA flit 4-4 send not allowed at Router 7
    445: global: SA flit 3-4 send not allowed at Router 7
    446: global: SA flit 4-4 send not allowed at Router 7
    446: global: SA flit 3-4 send not allowed at Router 7
    447: global: SA flit 4-4 send not allowed at Router 7
    447: global: SA flit 3-4 send not allowed at Router 7
    448: global: SA flit 4-4 send not allowed at Router 7
    448: global: SA flit 3-4 send not allowed at Router 7
    449: global: SA flit 4-4 send not allowed at Router 7
    449: global: SA flit 3-4 send not allowed at Router 7
    450: global: SA flit 4-4 send not allowed at Router 7
    450: global: SA flit 3-4 send not allowed at Router 7
    451: global: SA flit 4-4 send not allowed at Router 7
    451: global: SA flit 3-4 send not allowed at Router 7
    452: global: SA flit 4-4 send not allowed at Router 7
    452: global: SA flit 3-4 send not allowed at Router 7
    453: global: SA flit 4-4 send not allowed at Router 7
    453: global: SA flit 3-4 send not allowed at Router 7
    454: global: SA flit 4-4 send not allowed at Router 7
    454: global: SA flit 3-4 send not allowed at Router 7
    455: global: SA flit 4-4 send not allowed at Router 7
    455: global: SA flit 3-4 send not allowed at Router 7
    456: global: SA flit 4-4 send not allowed at Router 7
    456: global: SA flit 3-4 send not allowed at Router 7
    457: global: SA flit 4-4 send not allowed at Router 7
    457: global: SA flit 3-4 send not allowed at Router 7
    458: global: SA flit 4-4 send not allowed at Router 7
    458: global: SA flit 3-4 send not allowed at Router 7
    459: global: SA flit 4-4 send not allowed at Router 7
    459: global: SA flit 3-4 send not allowed at Router 7
    460: global: SA flit 4-4 send not allowed at Router 7
    460: global: SA flit 3-4 send not allowed at Router 7
    461: global: SA flit 4-4 send not allowed at Router 7
    461: global: SA flit 3-4 send not allowed at Router 7
    462: global: SA flit 4-4 send not allowed at Router 7
    462: global: SA flit 3-4 send not allowed at Router 7
    463: global: SA flit 4-4 send not allowed at Router 7
    463: global: SA flit 3-4 send not allowed at Router 7
    464: global: SA flit 4-4 send not allowed at Router 7
    464: global: SA flit 3-4 send not allowed at Router 7
    465: global: SA flit 4-4 send not allowed at Router 7
    465: global: SA flit 3-4 send not allowed at Router 7
    466: global: SA flit 4-4 send not allowed at Router 7
    466: global: SA flit 3-4 send not allowed at Router 7
    467: global: SA flit 4-4 send not allowed at Router 7
    467: global: SA flit 3-4 send not allowed at Router 7
    468: global: SA flit 4-4 send not allowed at Router 7
    468: global: SA flit 3-4 send not allowed at Router 7
    469: global: SA flit 4-4 send not allowed at Router 7
    469: global: SA flit 3-4 send not allowed at Router 7
    470: global: SA flit 4-4 send not allowed at Router 7
    470: global: SA flit 3-4 send not allowed at Router 7
    471: global: SA flit 4-4 send not allowed at Router 7
    471: global: SA flit 3-4 send not allowed at Router 7
    472: global: SA flit 4-4 send not allowed at Router 7
    472: global: SA flit 3-4 send not allowed at Router 7
    473: global: SA flit 4-4 send not allowed at Router 7
    473: global: SA flit 3-4 send not allowed at Router 7
    474: global: SA flit 4-4 send not allowed at Router 7
    474: global: SA flit 3-4 send not allowed at Router 7
    475: global: SA flit 4-4 send not allowed at Router 7
    475: global: SA flit 3-4 send not allowed at Router 7
    476: global: SA flit 4-4 send not allowed at Router 7
    476: global: SA flit 3-4 send not allowed at Router 7
    477: global: SA flit 4-4 send not allowed at Router 7
    477: global: SA flit 3-4 send not allowed at Router 7
    478: global: SA flit 4-4 send not allowed at Router 7
    478: global: SA flit 3-4 send not allowed at Router 7
    479: global: SA flit 4-4 send not allowed at Router 7
    479: global: SA flit 3-4 send not allowed at Router 7
    480: global: SA flit 4-4 send not allowed at Router 7
    480: global: SA flit 3-4 send not allowed at Router 7
    481: global: SA flit 4-4 send not allowed at Router 7
    481: global: SA flit 3-4 send not allowed at Router 7
    482: global: SA flit 4-4 send not allowed at Router 7
    482: global: SA flit 3-4 send not allowed at Router 7
    483: global: SA flit 4-4 send not allowed at Router 7
    483: global: SA flit 3-4 send not allowed at Router 7
    484: global: SA flit 4-4 send not allowed at Router 7
    484: global: SA flit 3-4 send not allowed at Router 7
    485: global: SA flit 4-4 send not allowed at Router 7
    485: global: SA flit 3-4 send not allowed at Router 7
    486: global: SA flit 4-4 send not allowed at Router 7
    486: global: SA flit 3-4 send not allowed at Router 7
    487: global: SA flit 4-4 send not allowed at Router 7
    487: global: SA flit 3-4 send not allowed at Router 7
    488: global: SA flit 4-4 send not allowed at Router 7
    488: global: SA flit 3-4 send not allowed at Router 7
    489: global: SA flit 4-4 send not allowed at Router 7
    489: global: SA flit 3-4 send not allowed at Router 7
    490: global: SA flit 4-4 send not allowed at Router 7
    490: global: SA flit 3-4 send not allowed at Router 7
    491: global: SA flit 4-4 send not allowed at Router 7
    491: global: SA flit 3-4 send not allowed at Router 7
    492: global: SA flit 4-4 send not allowed at Router 7
    492: global: SA flit 3-4 send not allowed at Router 7
    493: global: SA flit 4-4 send not allowed at Router 7
    493: global: SA flit 3-4 send not allowed at Router 7
    494: global: SA flit 4-4 send not allowed at Router 7
    494: global: SA flit 3-4 send not allowed at Router 7
    495: global: SA flit 4-4 send not allowed at Router 7
    495: global: SA flit 3-4 send not allowed at Router 7
    496: global: SA flit 4-4 send not allowed at Router 7
    496: global: SA flit 3-4 send not allowed at Router 7
    497: global: SA flit 4-4 send not allowed at Router 7
    497: global: SA flit 3-4 send not allowed at Router 7
    498: global: SA flit 4-4 send not allowed at Router 7
    498: global: SA flit 3-4 send not allowed at Router 7
    499: global: SA flit 4-4 send not allowed at Router 7
    499: global: SA flit 3-4 send not allowed at Router 7
    500: global: SA flit 4-4 send not allowed at Router 7
    500: global: SA flit 3-4 send not allowed at Router 7
    501: global: SA flit 4-4 send not allowed at Router 7
    501: global: SA flit 3-4 send not allowed at Router 7
    502: global: SA flit 4-4 send not allowed at Router 7
    502: global: SA flit 3-4 send not allowed at Router 7
    503: global: SA flit 4-4 send not allowed at Router 7
    503: global: SA flit 3-4 send not allowed at Router 7
    504: global: SA flit 4-4 send not allowed at Router 7
    504: global: SA flit 3-4 send not allowed at Router 7
    505: global: SA flit 4-4 send not allowed at Router 7
    505: global: SA flit 3-4 send not allowed at Router 7
    506: global: SA flit 4-4 send not allowed at Router 7
    506: global: SA flit 3-4 send not allowed at Router 7
    507: global: SA flit 4-4 send not allowed at Router 7
    507: global: SA flit 3-4 send not allowed at Router 7
    508: global: SA flit 4-4 send not allowed at Router 7
    508: global: SA flit 3-4 send not allowed at Router 7
    509: global: SA flit 4-4 send not allowed at Router 7
    509: global: SA flit 3-4 send not allowed at Router 7
    510: global: SA flit 4-4 send not allowed at Router 7
    510: global: SA flit 3-4 send not allowed at Router 7
    511: global: SA flit 4-4 send not allowed at Router 7
    511: global: SA flit 3-4 send not allowed at Router 7
    512: global: SA flit 4-4 send not allowed at Router 7
    512: global: SA flit 3-4 send not allowed at Router 7
    513: global: SA flit 4-4 send not allowed at Router 7
    513: global: SA flit 3-4 send not allowed at Router 7
    514: global: SA flit 4-4 send not allowed at Router 7
    514: global: SA flit 3-4 send not allowed at Router 7
    515: global: SA flit 4-4 send not allowed at Router 7
    515: global: SA flit 3-4 send not allowed at Router 7
    516: global: SA flit 4-4 send not allowed at Router 7
[...]
    829: global: SA flit 3-4 send not allowed at Router 7
    830: global: SA flit 4-4 send not allowed at Router 7
    830: global: SA flit 3-4 send not allowed at Router 7
    831: global: SA flit 4-4 send not allowed at Router 7
    831: global: SA flit 3-4 send not allowed at Router 7
    832: global: SA flit 4-4 send not allowed at Router 7
    832: global: SA flit 3-4 send not allowed at Router 7
    833: global: SA flit 4-4 send not allowed at Router 7
    833: global: SA flit 3-4 send not allowed at Router 7
    834: global: SA flit 4-4 send not allowed at Router 7
    834: global: SA flit 3-4 send not allowed at Router 7
    835: global: SA flit 4-4 send not allowed at Router 7
    835: global: SA flit 3-4 send not allowed at Router 7
    836: global: SA flit 4-4 send not allowed at Router 7
    836: global: SA flit 3-4 send not allowed at Router 7
    837: global: SA flit 4-4 send not allowed at Router 7
    837: global: SA flit 3-4 send not allowed at Router 7
    838: global: SA flit 4-4 send not allowed at Router 7
    838: global: SA flit 3-4 send not allowed at Router 7
    839: global: SA flit 4-4 send not allowed at Router 7
    839: global: SA flit 3-4 send not allowed at Router 7
    840: global: SA flit 4-4 send not allowed at Router 7
    840: global: SA flit 3-4 send not allowed at Router 7
    841: global: SA flit 4-4 send not allowed at Router 7
    841: global: SA flit 3-4 send not allowed at Router 7
    842: global: SA flit 4-4 send not allowed at Router 7
    842: global: SA flit 3-4 send not allowed at Router 7
    843: global: SA flit 4-4 send not allowed at Router 7
    843: global: SA flit 3-4 send not allowed at Router 7
    844: global: SA flit 4-4 send not allowed at Router 7
    844: global: SA flit 3-4 send not allowed at Router 7
    845: global: SA flit 4-4 send not allowed at Router 7
    845: global: SA flit 3-4 send not allowed at Router 7
    846: global: SA flit 4-4 send not allowed at Router 7
    846: global: SA flit 3-4 send not allowed at Router 7
    847: global: SA flit 4-4 send not allowed at Router 7
    847: global: SA flit 3-4 send not allowed at Router 7
    848: global: SA flit 4-4 send not allowed at Router 7
    848: global: SA flit 3-4 send not allowed at Router 7
    849: global: SA flit 4-4 send not allowed at Router 7
    849: global: SA flit 3-4 send not allowed at Router 7
    850: global: SA flit 4-4 send not allowed at Router 7
    850: global: SA flit 3-4 send not allowed at Router 7
    851: global: SA flit 4-4 send not allowed at Router 7
    851: global: SA flit 3-4 send not allowed at Router 7
    852: global: SA flit 4-4 send not allowed at Router 7
    852: global: SA flit 3-4 send not allowed at Router 7
    853: global: SA flit 4-4 send not allowed at Router 7
    853: global: SA flit 3-4 send not allowed at Router 7
    854: global: SA flit 4-4 send not allowed at Router 7
    854: global: SA flit 3-4 send not allowed at Router 7
    855: global: SA flit 4-4 send not allowed at Router 7
    855: global: SA flit 3-4 send not allowed at Router 7
    856: global: SA flit 4-4 send not allowed at Router 7
    856: global: SA flit 3-4 send not allowed at Router 7
    857: global: SA flit 4-4 send not allowed at Router 7
    857: global: SA flit 3-4 send not allowed at Router 7
    858: global: SA flit 4-4 send not allowed at Router 7
    858: global: SA flit 3-4 send not allowed at Router 7
    859: global: SA flit 4-4 send not allowed at Router 7
    859: global: SA flit 3-4 send not allowed at Router 7
    860: global: SA flit 4-4 send not allowed at Router 7
    860: global: SA flit 3-4 send not allowed at Router 7
    861: global: SA flit 4-4 send not allowed at Router 7
    861: global: SA flit 3-4 send not allowed at Router 7
    862: global: SA flit 4-4 send not allowed at Router 7
    862: global: SA flit 3-4 send not allowed at Router 7
    863: global: SA flit 4-4 send not allowed at Router 7
    863: global: SA flit 3-4 send not allowed at Router 7
    864: global: SA flit 4-4 send not allowed at Router 7
    864: global: SA flit 3-4 send not allowed at Router 7
    865: global: SA flit 4-4 send not allowed at Router 7
    865: global: SA flit 3-4 send not allowed at Router 7
    866: global: SA flit 4-4 send not allowed at Router 7
    866: global: SA flit 3-4 send not allowed at Router 7
    867: global: SA flit 4-4 send not allowed at Router 7
    867: global: SA flit 3-4 send not allowed at Router 7
    868: global: SA flit 4-4 send not allowed at Router 7
    868: global: SA flit 3-4 send not allowed at Router 7
    869: global: SA flit 4-4 send not allowed at Router 7
    869: global: SA flit 3-4 send not allowed at Router 7
    870: global: SA flit 4-4 send not allowed at Router 7
    870: global: SA flit 3-4 send not allowed at Router 7
    871: global: SA flit 4-4 send not allowed at Router 7
    871: global: SA flit 3-4 send not allowed at Router 7
    872: global: SA flit 4-4 send not allowed at Router 7
    872: global: SA flit 3-4 send not allowed at Router 7
    873: global: SA flit 4-4 send not allowed at Router 7
    873: global: SA flit 3-4 send not allowed at Router 7
    874: global: SA flit 4-4 send not allowed at Router 7
    874: global: SA flit 3-4 send not allowed at Router 7
    875: global: SA flit 4-4 send not allowed at Router 7
    875: global: SA flit 3-4 send not allowed at Router 7
    876: global: SA flit 4-4 send not allowed at Router 7
    876: global: SA flit 3-4 send not allowed at Router 7
    877: global: SA flit 4-4 send not allowed at Router 7
    877: global: SA flit 3-4 send not allowed at Router 7
    878: global: SA flit 4-4 send not allowed at Router 7
    878: global: SA flit 3-4 send not allowed at Router 7
    879: global: SA flit 4-4 send not allowed at Router 7
    879: global: SA flit 3-4 send not allowed at Router 7
    880: global: SA flit 4-4 send not allowed at Router 7
    880: global: SA flit 3-4 send not allowed at Router 7
    881: global: SA flit 4-4 send not allowed at Router 7
    881: global: SA flit 3-4 send not allowed at Router 7
    882: global: SA flit 4-4 send not allowed at Router 7
    882: global: SA flit 3-4 send not allowed at Router 7
    883: global: SA flit 4-4 send not allowed at Router 7
    883: global: SA flit 3-4 send not allowed at Router 7
    884: global: SA flit 4-4 send not allowed at Router 7
    884: global: SA flit 3-4 send not allowed at Router 7
    885: global: SA flit 4-4 send not allowed at Router 7
    885: global: SA flit 3-4 send not allowed at Router 7
    886: global: SA flit 4-4 send not allowed at Router 7
    886: global: SA flit 3-4 send not allowed at Router 7
    887: global: SA flit 4-4 send not allowed at Router 7
    887: global: SA flit 3-4 send not allowed at Router 7
    888: global: SA flit 4-4 send not allowed at Router 7
    888: global: SA flit 3-4 send not allowed at Router 7
    889: global: SA flit 4-4 send not allowed at Router 7
    889: global: SA flit 3-4 send not allowed at Router 7
    890: global: SA flit 4-4 send not allowed at Router 7
    890: global: SA flit 3-4 send not allowed at Router 7
    891: global: SA flit 4-4 send not allowed at Router 7
    891: global: SA flit 3-4 send not allowed at Router 7
    892: global: SA flit 4-4 send not allowed at Router 7
    892: global: SA flit 3-4 send not allowed at Router 7
    893: global: SA flit 4-4 send not allowed at Router 7
    893: global: SA flit 3-4 send not allowed at Router 7
    894: global: SA flit 4-4 send not allowed at Router 7
    894: global: SA flit 3-4 send not allowed at Router 7
    895: global: SA flit 4-4 send not allowed at Router 7
    895: global: SA flit 3-4 send not allowed at Router 7
    896: global: SA flit 4-4 send not allowed at Router 7
    896: global: SA flit 3-4 send not allowed at Router 7
    897: global: SA flit 4-4 send not allowed at Router 7
    897: global: SA flit 3-4 send not allowed at Router 7
    898: global: SA flit 4-4 send not allowed at Router 7
    898: global: SA flit 3-4 send not allowed at Router 7
    899: global: SA flit 4-4 send not allowed at Router 7
    899: global: SA flit 3-4 send not allowed at Router 7
    900: global: SA flit 4-4 send not allowed at Router 7
    900: global: SA flit 3-4 send not allowed at Router 7
    901: global: SA flit 4-4 send not allowed at Router 7
    901: global: SA flit 3-4 send not allowed at Router 7
    902: global: SA flit 4-4 send not allowed at Router 7
    902: global: SA flit 3-4 send not allowed at Router 7
    903: global: SA flit 4-4 send not allowed at Router 7
    903: global: SA flit 3-4 send not allowed at Router 7
    904: global: SA flit 4-4 send not allowed at Router 7
    904: global: SA flit 3-4 send not allowed at Router 7
    905: global: SA flit 4-4 send not allowed at Router 7
    905: global: SA flit 3-4 send not allowed at Router 7
    906: global: SA flit 4-4 send not allowed at Router 7
    906: global: SA flit 3-4 send not allowed at Router 7
    907: global: SA flit 4-4 send not allowed at Router 7
    907: global: SA flit 3-4 send not allowed at Router 7
    908: global: SA flit 4-4 send not allowed at Router 7
    908: global: SA flit 3-4 send not allowed at Router 7
    909: global: SA flit 4-4 send not allowed at Router 7
    909: global: SA flit 3-4 send not allowed at Router 7
    910: global: SA flit 4-4 send not allowed at Router 7
    910: global: SA flit 3-4 send not allowed at Router 7
    911: global: SA flit 4-4 send not allowed at Router 7
    911: global: SA flit 3-4 send not allowed at Router 7
    912: global: SA flit 4-4 send not allowed at Router 7
    912: global: SA flit 3-4 send not allowed at Router 7
    913: global: SA flit 4-4 send not allowed at Router 7
    913: global: SA flit 3-4 send not allowed at Router 7
    914: global: SA flit 4-4 send not allowed at Router 7
    914: global: SA flit 3-4 send not allowed at Router 7
    915: global: SA flit 4-4 send not allowed at Router 7
    915: global: SA flit 3-4 send not allowed at Router 7
    916: global: SA flit 4-4 send not allowed at Router 7
    916: global: SA flit 3-4 send not allowed at Router 7
    917: global: SA flit 4-4 send not allowed at Router 7
    917: global: SA flit 3-4 send not allowed at Router 7
    918: global: SA flit 4-4 send not allowed at Router 7
    918: global: SA flit 3-4 send not allowed at Router 7
    919: global: SA flit 4-4 send not allowed at Router 7
    919: global: SA flit 3-4 send not allowed at Router 7
    920: global: SA flit 4-4 send not allowed at Router 7
    920: global: SA flit 3-4 send not allowed at Router 7
    921: global: SA flit 4-4 send not allowed at Router 7
    921: global: SA flit 3-4 send not allowed at Router 7
    922: global: SA flit 4-4 send not allowed at Router 7
    922: global: SA flit 3-4 send not allowed at Router 7
    923: global: SA flit 4-4 send not allowed at Router 7
    923: global: SA flit 3-4 send not allowed at Router 7
    924: global: SA flit 4-4 send not allowed at Router 7
    924: global: SA flit 3-4 send not allowed at Router 7
    925: global: SA flit 4-4 send not allowed at Router 7
    925: global: SA flit 3-4 send not allowed at Router 7
    926: global: SA flit 4-4 send not allowed at Router 7
    926: global: SA flit 3-4 send not allowed at Router 7
    927: global: SA flit 4-4 send not allowed at Router 7
    927: global: SA flit 3-4 send not allowed at Router 7
    928: global: SA flit 4-4 send not allowed at Router 7
    928: global: SA flit 3-4 send not allowed at Router 7
    929: global: SA flit 4-4 send not allowed at Router 7
    929: global: SA flit 3-4 send not allowed at Router 7
    930: global: SA flit 4-4 send not allowed at Router 7
    930: global: SA flit 3-4 send not allowed at Router 7
    931: global: SA flit 4-4 send not allowed at Router 7
    931: global: SA flit 3-4 send not allowed at Router 7
    932: global: SA flit 4-4 send not allowed at Router 7
    932: global: SA flit 3-4 send not allowed at Router 7
    933: global: SA flit 4-4 send not allowed at Router 7
    933: global: SA flit 3-4 send not allowed at Router 7
    934: global: SA flit 4-4 send not allowed at Router 7
    934: global: SA flit 3-4 send not allowed at Router 7
    935: global: SA flit 4-4 send not allowed at Router 7
    935: global: SA flit 3-4 send not allowed at Router 7
    936: global: SA flit 4-4 send not allowed at Router 7
    936: global: SA flit 3-4 send not allowed at Router 7
    937: global: SA flit 4-4 send not allowed at Router 7
    937: global: SA flit 3-4 send not allowed at Router 7
    938: global: SA flit 4-4 send not allowed at Router 7
    938: global: SA flit 3-4 send not allowed at Router 7
    939: global: SA flit 4-4 send not allowed at Router 7
    939: global: SA flit 3-4 send not allowed at Router 7
    940: global: SA flit 4-4 send not allowed at Router 7
    940: global: SA flit 3-4 send not allowed at Router 7
    941: global: SA flit 4-4 send not allowed at Router 7
    941: global: SA flit 3-4 send not allowed at Router 7
    942: global: SA flit 4-4 send not allowed at Router 7
    942: global: SA flit 3-4 send not allowed at Router 7
    943: global: SA flit 4-4 send not allowed at Router 7
    943: global: SA flit 3-4 send not allowed at Router 7
    944: global: SA flit 4-4 send not allowed at Router 7
    944: global: SA flit 3-4 send not allowed at Router 7
    945: global: SA flit 4-4 send not allowed at Router 7
    945: global: SA flit 3-4 send not allowed at Router 7
    946: global: SA flit 4-4 send not allowed at Router 7
    946: global: SA flit 3-4 send not allowed at Router 7
    947: global: SA flit 4-4 send not allowed at Router 7
    947: global: SA flit 3-4 send not allowed at Router 7
    948: global: SA flit 4-4 send not allowed at Router 7
    948: global: SA flit 3-4 send not allowed at Router 7
    949: global: SA flit 4-4 send not allowed at Router 7
    949: global: SA flit 3-4 send not allowed at Router 7
    950: global: SA flit 4-4 send not allowed at Router 7
    950: global: SA flit 3-4 send not allowed at Router 7
    951: global: SA flit 4-4 send not allowed at Router 7
    951: global: SA flit 3-4 send not allowed at Router 7
    952: global: SA flit 4-4 send not allowed at Router 7
    952: global: SA flit 3-4 send not allowed at Router 7
    953: global: SA flit 4-4 send not allowed at Router 7
    953: global: SA flit 3-4 send not allowed at Router 7
    954: global: SA flit 4-4 send not allowed at Router 7
    954: global: SA flit 3-4 send not allowed at Router 7
    955: global: SA flit 4-4 send not allowed at Router 7
    955: global: SA flit 3-4 send not allowed at Router 7
    956: global: SA flit 4-4 send not allowed at Router 7
    956: global: SA flit 3-4 send not allowed at Router 7
    957: global: SA flit 4-4 send not allowed at Router 7
    957: global: SA flit 3-4 send not allowed at Router 7
    958: global: SA flit 4-4 send not allowed at Router 7
    958: global: SA flit 3-4 send not allowed at Router 7
    959: global: SA flit 4-4 send not allowed at Router 7
    959: global: SA flit 3-4 send not allowed at Router 7
    960: global: SA flit 4-4 send not allowed at Router 7
    960: global: SA flit 3-4 send not allowed at Router 7
    961: global: SA flit 4-4 send not allowed at Router 7
    961: global: SA flit 3-4 send not allowed at Router 7
    962: global: SA flit 4-4 send not allowed at Router 7
    962: global: SA flit 3-4 send not allowed at Router 7
    963: global: SA flit 4-4 send not allowed at Router 7
    963: global: SA flit 3-4 send not allowed at Router 7
    964: global: SA flit 4-4 send not allowed at Router 7
    964: global: SA flit 3-4 send not allowed at Router 7
    965: global: SA flit 4-4 send not allowed at Router 7
    965: global: SA flit 3-4 send not allowed at Router 7
    966: global: SA flit 4-4 send not allowed at Router 7
    966: global: SA flit 3-4 send not allowed at Router 7
    967: global: SA flit 4-4 send not allowed at Router 7
    967: global: SA flit 3-4 send not allowed at Router 7
    968: global: SA flit 4-4 send not allowed at Router 7
    968: global: SA flit 3-4 send not allowed at Router 7
    969: global: SA flit 4-4 send not allowed at Router 7
    969: global: SA flit 3-4 send not allowed at Router 7
    970: global: SA flit 4-4 send not allowed at Router 7
    970: global: SA flit 3-4 send not allowed at Router 7
    971: global: SA flit 4-4 send not allowed at Router 7
    971: global: SA flit 3-4 send not allowed at Router 7
    972: global: SA flit 4-4 send not allowed at Router 7
    972: global: SA flit 3-4 send not allowed at Router 7
    973: global: SA flit 4-4 send not allowed at Router 7
    973: global: SA flit 3-4 send not allowed at Router 7
    974: global: SA flit 4-4 send not allowed at Router 7
    974: global: SA flit 3-4 send not allowed at Router 7
    975: global: SA flit 4-4 send not allowed at Router 7
    975: global: SA flit 3-4 send not allowed at Router 7
    976: global: SA flit 4-4 send not allowed at Router 7
    976: global: SA flit 3-4 send not allowed at Router 7
    977: global: SA flit 4-4 send not allowed at Router 7
    977: global: SA flit 3-4 send not allowed at Router 7
    978: global: SA flit 4-4 send not allowed at Router 7
    978: global: SA flit 3-4 send not allowed at Router 7
    979: global: SA flit 4-4 send not allowed at Router 7
    979: global: SA flit 3-4 send not allowed at Router 7
    980: global: SA flit 4-4 send not allowed at Router 7
    980: global: SA flit 3-4 send not allowed at Router 7
    981: global: SA flit 4-4 send not allowed at Router 7
    981: global: SA flit 3-4 send not allowed at Router 7
    982: global: SA flit 4-4 send not allowed at Router 7
    982: global: SA flit 3-4 send not allowed at Router 7
    983: global: SA flit 4-4 send not allowed at Router 7
    983: global: SA flit 3-4 send not allowed at Router 7
    984: global: SA flit 4-4 send not allowed at Router 7
    984: global: SA flit 3-4 send not allowed at Router 7
    985: global: SA flit 4-4 send not allowed at Router 7
    985: global: SA flit 3-4 send not allowed at Router 7
    986: global: SA flit 4-4 send not allowed at Router 7
    986: global: SA flit 3-4 send not allowed at Router 7
    987: global: SA flit 4-4 send not allowed at Router 7
    987: global: SA flit 3-4 send not allowed at Router 7
    988: global: SA flit 4-4 send not allowed at Router 7
    988: global: SA flit 3-4 send not allowed at Router 7
    989: global: SA flit 4-4 send not allowed at Router 7
    989: global: SA flit 3-4 send not allowed at Router 7
    990: global: SA flit 4-4 send not allowed at Router 7
    990: global: SA flit 3-4 send not allowed at Router 7
    991: global: SA flit 4-4 send not allowed at Router 7
    991: global: SA flit 3-4 send not allowed at Router 7
    992: global: SA flit 4-4 send not allowed at Router 7
    992: global: SA flit 3-4 send not allowed at Router 7
    993: global: SA flit 4-4 send not allowed at Router 7
    993: global: SA flit 3-4 send not allowed at Router 7
    994: global: SA flit 4-4 send not allowed at Router 7
    994: global: SA flit 3-4 send not allowed at Router 7
    995: global: SA flit 4-4 send not allowed at Router 7
    995: global: SA flit 3-4 send not allowed at Router 7
    996: global: SA flit 4-4 send not allowed at Router 7
    996: global: SA flit 3-4 send not allowed at Router 7
    997: global: SA flit 4-4 send not allowed at Router 7
    997: global: SA flit 3-4 send not allowed at Router 7
    998: global: SA flit 4-4 send not allowed at Router 7
    998: global: SA flit 3-4 send not allowed at Router 7
    999: global: SA flit 4-4 send not allowed at Router 7
    999: global: SA flit 3-4 send not allowed at Router 7
   1000: global: SA flit 4-4 send not allowed at Router 7
   1000: global: SA flit 3-4 send not allowed at Router 7
Exiting @ tick 1000 because Network Tester completed simCycles
